* NGSPICE file created from diffpair458.ext - technology: sky130A

.subckt diffpair458 minus drain_right drain_left source plus
X0 drain_left.t19 plus.t0 source.t32 a_n2762_n3288# sky130_fd_pr__nfet_01v8 ad=1.98 pd=12.33 as=4.68 ps=24.78 w=12 l=0.6
X1 drain_right.t19 minus.t0 source.t0 a_n2762_n3288# sky130_fd_pr__nfet_01v8 ad=1.98 pd=12.33 as=1.98 ps=12.33 w=12 l=0.6
X2 drain_left.t18 plus.t1 source.t33 a_n2762_n3288# sky130_fd_pr__nfet_01v8 ad=1.98 pd=12.33 as=1.98 ps=12.33 w=12 l=0.6
X3 source.t39 plus.t2 drain_left.t17 a_n2762_n3288# sky130_fd_pr__nfet_01v8 ad=1.98 pd=12.33 as=1.98 ps=12.33 w=12 l=0.6
X4 source.t1 minus.t1 drain_right.t18 a_n2762_n3288# sky130_fd_pr__nfet_01v8 ad=1.98 pd=12.33 as=1.98 ps=12.33 w=12 l=0.6
X5 drain_right.t17 minus.t2 source.t3 a_n2762_n3288# sky130_fd_pr__nfet_01v8 ad=1.98 pd=12.33 as=1.98 ps=12.33 w=12 l=0.6
X6 drain_left.t16 plus.t3 source.t23 a_n2762_n3288# sky130_fd_pr__nfet_01v8 ad=1.98 pd=12.33 as=1.98 ps=12.33 w=12 l=0.6
X7 source.t9 minus.t3 drain_right.t16 a_n2762_n3288# sky130_fd_pr__nfet_01v8 ad=4.68 pd=24.78 as=1.98 ps=12.33 w=12 l=0.6
X8 source.t26 plus.t4 drain_left.t15 a_n2762_n3288# sky130_fd_pr__nfet_01v8 ad=1.98 pd=12.33 as=1.98 ps=12.33 w=12 l=0.6
X9 drain_right.t15 minus.t4 source.t11 a_n2762_n3288# sky130_fd_pr__nfet_01v8 ad=1.98 pd=12.33 as=1.98 ps=12.33 w=12 l=0.6
X10 source.t29 plus.t5 drain_left.t14 a_n2762_n3288# sky130_fd_pr__nfet_01v8 ad=1.98 pd=12.33 as=1.98 ps=12.33 w=12 l=0.6
X11 drain_left.t13 plus.t6 source.t36 a_n2762_n3288# sky130_fd_pr__nfet_01v8 ad=1.98 pd=12.33 as=1.98 ps=12.33 w=12 l=0.6
X12 drain_left.t12 plus.t7 source.t24 a_n2762_n3288# sky130_fd_pr__nfet_01v8 ad=1.98 pd=12.33 as=1.98 ps=12.33 w=12 l=0.6
X13 source.t10 minus.t5 drain_right.t14 a_n2762_n3288# sky130_fd_pr__nfet_01v8 ad=1.98 pd=12.33 as=1.98 ps=12.33 w=12 l=0.6
X14 drain_right.t13 minus.t6 source.t19 a_n2762_n3288# sky130_fd_pr__nfet_01v8 ad=1.98 pd=12.33 as=1.98 ps=12.33 w=12 l=0.6
X15 drain_right.t12 minus.t7 source.t5 a_n2762_n3288# sky130_fd_pr__nfet_01v8 ad=1.98 pd=12.33 as=1.98 ps=12.33 w=12 l=0.6
X16 source.t12 minus.t8 drain_right.t11 a_n2762_n3288# sky130_fd_pr__nfet_01v8 ad=1.98 pd=12.33 as=1.98 ps=12.33 w=12 l=0.6
X17 a_n2762_n3288# a_n2762_n3288# a_n2762_n3288# a_n2762_n3288# sky130_fd_pr__nfet_01v8 ad=4.68 pd=24.78 as=37.44 ps=198.24 w=12 l=0.6
X18 source.t16 minus.t9 drain_right.t10 a_n2762_n3288# sky130_fd_pr__nfet_01v8 ad=1.98 pd=12.33 as=1.98 ps=12.33 w=12 l=0.6
X19 a_n2762_n3288# a_n2762_n3288# a_n2762_n3288# a_n2762_n3288# sky130_fd_pr__nfet_01v8 ad=4.68 pd=24.78 as=0 ps=0 w=12 l=0.6
X20 source.t2 minus.t10 drain_right.t9 a_n2762_n3288# sky130_fd_pr__nfet_01v8 ad=1.98 pd=12.33 as=1.98 ps=12.33 w=12 l=0.6
X21 source.t27 plus.t8 drain_left.t11 a_n2762_n3288# sky130_fd_pr__nfet_01v8 ad=1.98 pd=12.33 as=1.98 ps=12.33 w=12 l=0.6
X22 source.t20 plus.t9 drain_left.t10 a_n2762_n3288# sky130_fd_pr__nfet_01v8 ad=1.98 pd=12.33 as=1.98 ps=12.33 w=12 l=0.6
X23 source.t15 minus.t11 drain_right.t8 a_n2762_n3288# sky130_fd_pr__nfet_01v8 ad=1.98 pd=12.33 as=1.98 ps=12.33 w=12 l=0.6
X24 source.t4 minus.t12 drain_right.t7 a_n2762_n3288# sky130_fd_pr__nfet_01v8 ad=1.98 pd=12.33 as=1.98 ps=12.33 w=12 l=0.6
X25 drain_right.t6 minus.t13 source.t17 a_n2762_n3288# sky130_fd_pr__nfet_01v8 ad=1.98 pd=12.33 as=1.98 ps=12.33 w=12 l=0.6
X26 drain_right.t5 minus.t14 source.t8 a_n2762_n3288# sky130_fd_pr__nfet_01v8 ad=1.98 pd=12.33 as=4.68 ps=24.78 w=12 l=0.6
X27 source.t13 minus.t15 drain_right.t4 a_n2762_n3288# sky130_fd_pr__nfet_01v8 ad=4.68 pd=24.78 as=1.98 ps=12.33 w=12 l=0.6
X28 drain_left.t9 plus.t10 source.t34 a_n2762_n3288# sky130_fd_pr__nfet_01v8 ad=1.98 pd=12.33 as=1.98 ps=12.33 w=12 l=0.6
X29 source.t7 minus.t16 drain_right.t3 a_n2762_n3288# sky130_fd_pr__nfet_01v8 ad=1.98 pd=12.33 as=1.98 ps=12.33 w=12 l=0.6
X30 source.t30 plus.t11 drain_left.t8 a_n2762_n3288# sky130_fd_pr__nfet_01v8 ad=1.98 pd=12.33 as=1.98 ps=12.33 w=12 l=0.6
X31 drain_right.t2 minus.t17 source.t6 a_n2762_n3288# sky130_fd_pr__nfet_01v8 ad=1.98 pd=12.33 as=4.68 ps=24.78 w=12 l=0.6
X32 drain_left.t7 plus.t12 source.t38 a_n2762_n3288# sky130_fd_pr__nfet_01v8 ad=1.98 pd=12.33 as=1.98 ps=12.33 w=12 l=0.6
X33 drain_left.t6 plus.t13 source.t37 a_n2762_n3288# sky130_fd_pr__nfet_01v8 ad=1.98 pd=12.33 as=1.98 ps=12.33 w=12 l=0.6
X34 source.t25 plus.t14 drain_left.t5 a_n2762_n3288# sky130_fd_pr__nfet_01v8 ad=4.68 pd=24.78 as=1.98 ps=12.33 w=12 l=0.6
X35 drain_left.t4 plus.t15 source.t28 a_n2762_n3288# sky130_fd_pr__nfet_01v8 ad=1.98 pd=12.33 as=1.98 ps=12.33 w=12 l=0.6
X36 source.t22 plus.t16 drain_left.t3 a_n2762_n3288# sky130_fd_pr__nfet_01v8 ad=4.68 pd=24.78 as=1.98 ps=12.33 w=12 l=0.6
X37 a_n2762_n3288# a_n2762_n3288# a_n2762_n3288# a_n2762_n3288# sky130_fd_pr__nfet_01v8 ad=4.68 pd=24.78 as=0 ps=0 w=12 l=0.6
X38 drain_right.t1 minus.t18 source.t18 a_n2762_n3288# sky130_fd_pr__nfet_01v8 ad=1.98 pd=12.33 as=1.98 ps=12.33 w=12 l=0.6
X39 a_n2762_n3288# a_n2762_n3288# a_n2762_n3288# a_n2762_n3288# sky130_fd_pr__nfet_01v8 ad=4.68 pd=24.78 as=0 ps=0 w=12 l=0.6
X40 drain_right.t0 minus.t19 source.t14 a_n2762_n3288# sky130_fd_pr__nfet_01v8 ad=1.98 pd=12.33 as=1.98 ps=12.33 w=12 l=0.6
X41 drain_left.t2 plus.t17 source.t21 a_n2762_n3288# sky130_fd_pr__nfet_01v8 ad=1.98 pd=12.33 as=4.68 ps=24.78 w=12 l=0.6
X42 source.t35 plus.t18 drain_left.t1 a_n2762_n3288# sky130_fd_pr__nfet_01v8 ad=1.98 pd=12.33 as=1.98 ps=12.33 w=12 l=0.6
X43 source.t31 plus.t19 drain_left.t0 a_n2762_n3288# sky130_fd_pr__nfet_01v8 ad=1.98 pd=12.33 as=1.98 ps=12.33 w=12 l=0.6
R0 plus.n8 plus.t16 574.293
R1 plus.n36 plus.t17 574.293
R2 plus.n26 plus.t0 547.472
R3 plus.n25 plus.t2 547.472
R4 plus.n24 plus.t3 547.472
R5 plus.n2 plus.t4 547.472
R6 plus.n18 plus.t7 547.472
R7 plus.n4 plus.t9 547.472
R8 plus.n12 plus.t10 547.472
R9 plus.n6 plus.t11 547.472
R10 plus.n7 plus.t15 547.472
R11 plus.n54 plus.t14 547.472
R12 plus.n53 plus.t6 547.472
R13 plus.n52 plus.t19 547.472
R14 plus.n30 plus.t13 547.472
R15 plus.n46 plus.t5 547.472
R16 plus.n32 plus.t1 547.472
R17 plus.n40 plus.t18 547.472
R18 plus.n34 plus.t12 547.472
R19 plus.n35 plus.t8 547.472
R20 plus.n9 plus.n6 161.3
R21 plus.n11 plus.n10 161.3
R22 plus.n12 plus.n5 161.3
R23 plus.n14 plus.n13 161.3
R24 plus.n15 plus.n4 161.3
R25 plus.n17 plus.n16 161.3
R26 plus.n18 plus.n3 161.3
R27 plus.n20 plus.n19 161.3
R28 plus.n21 plus.n2 161.3
R29 plus.n23 plus.n22 161.3
R30 plus.n24 plus.n1 161.3
R31 plus.n27 plus.n26 161.3
R32 plus.n37 plus.n34 161.3
R33 plus.n39 plus.n38 161.3
R34 plus.n40 plus.n33 161.3
R35 plus.n42 plus.n41 161.3
R36 plus.n43 plus.n32 161.3
R37 plus.n45 plus.n44 161.3
R38 plus.n46 plus.n31 161.3
R39 plus.n48 plus.n47 161.3
R40 plus.n49 plus.n30 161.3
R41 plus.n51 plus.n50 161.3
R42 plus.n52 plus.n29 161.3
R43 plus.n55 plus.n54 161.3
R44 plus.n25 plus.n0 80.6037
R45 plus.n53 plus.n28 80.6037
R46 plus.n26 plus.n25 48.2005
R47 plus.n25 plus.n24 48.2005
R48 plus.n7 plus.n6 48.2005
R49 plus.n54 plus.n53 48.2005
R50 plus.n53 plus.n52 48.2005
R51 plus.n35 plus.n34 48.2005
R52 plus.n9 plus.n8 45.1367
R53 plus.n37 plus.n36 45.1367
R54 plus.n23 plus.n2 44.549
R55 plus.n12 plus.n11 44.549
R56 plus.n51 plus.n30 44.549
R57 plus.n40 plus.n39 44.549
R58 plus.n19 plus.n18 34.3247
R59 plus.n13 plus.n4 34.3247
R60 plus.n47 plus.n46 34.3247
R61 plus.n41 plus.n32 34.3247
R62 plus plus.n55 33.5937
R63 plus.n17 plus.n4 24.1005
R64 plus.n18 plus.n17 24.1005
R65 plus.n46 plus.n45 24.1005
R66 plus.n45 plus.n32 24.1005
R67 plus.n19 plus.n2 13.8763
R68 plus.n13 plus.n12 13.8763
R69 plus.n47 plus.n30 13.8763
R70 plus.n41 plus.n40 13.8763
R71 plus.n8 plus.n7 13.3799
R72 plus.n36 plus.n35 13.3799
R73 plus plus.n27 12.2732
R74 plus.n24 plus.n23 3.65202
R75 plus.n11 plus.n6 3.65202
R76 plus.n52 plus.n51 3.65202
R77 plus.n39 plus.n34 3.65202
R78 plus.n1 plus.n0 0.285035
R79 plus.n27 plus.n0 0.285035
R80 plus.n55 plus.n28 0.285035
R81 plus.n29 plus.n28 0.285035
R82 plus.n10 plus.n9 0.189894
R83 plus.n10 plus.n5 0.189894
R84 plus.n14 plus.n5 0.189894
R85 plus.n15 plus.n14 0.189894
R86 plus.n16 plus.n15 0.189894
R87 plus.n16 plus.n3 0.189894
R88 plus.n20 plus.n3 0.189894
R89 plus.n21 plus.n20 0.189894
R90 plus.n22 plus.n21 0.189894
R91 plus.n22 plus.n1 0.189894
R92 plus.n50 plus.n29 0.189894
R93 plus.n50 plus.n49 0.189894
R94 plus.n49 plus.n48 0.189894
R95 plus.n48 plus.n31 0.189894
R96 plus.n44 plus.n31 0.189894
R97 plus.n44 plus.n43 0.189894
R98 plus.n43 plus.n42 0.189894
R99 plus.n42 plus.n33 0.189894
R100 plus.n38 plus.n33 0.189894
R101 plus.n38 plus.n37 0.189894
R102 source.n554 source.n494 289.615
R103 source.n480 source.n420 289.615
R104 source.n414 source.n354 289.615
R105 source.n340 source.n280 289.615
R106 source.n60 source.n0 289.615
R107 source.n134 source.n74 289.615
R108 source.n200 source.n140 289.615
R109 source.n274 source.n214 289.615
R110 source.n514 source.n513 185
R111 source.n519 source.n518 185
R112 source.n521 source.n520 185
R113 source.n510 source.n509 185
R114 source.n527 source.n526 185
R115 source.n529 source.n528 185
R116 source.n506 source.n505 185
R117 source.n536 source.n535 185
R118 source.n537 source.n504 185
R119 source.n539 source.n538 185
R120 source.n502 source.n501 185
R121 source.n545 source.n544 185
R122 source.n547 source.n546 185
R123 source.n498 source.n497 185
R124 source.n553 source.n552 185
R125 source.n555 source.n554 185
R126 source.n440 source.n439 185
R127 source.n445 source.n444 185
R128 source.n447 source.n446 185
R129 source.n436 source.n435 185
R130 source.n453 source.n452 185
R131 source.n455 source.n454 185
R132 source.n432 source.n431 185
R133 source.n462 source.n461 185
R134 source.n463 source.n430 185
R135 source.n465 source.n464 185
R136 source.n428 source.n427 185
R137 source.n471 source.n470 185
R138 source.n473 source.n472 185
R139 source.n424 source.n423 185
R140 source.n479 source.n478 185
R141 source.n481 source.n480 185
R142 source.n374 source.n373 185
R143 source.n379 source.n378 185
R144 source.n381 source.n380 185
R145 source.n370 source.n369 185
R146 source.n387 source.n386 185
R147 source.n389 source.n388 185
R148 source.n366 source.n365 185
R149 source.n396 source.n395 185
R150 source.n397 source.n364 185
R151 source.n399 source.n398 185
R152 source.n362 source.n361 185
R153 source.n405 source.n404 185
R154 source.n407 source.n406 185
R155 source.n358 source.n357 185
R156 source.n413 source.n412 185
R157 source.n415 source.n414 185
R158 source.n300 source.n299 185
R159 source.n305 source.n304 185
R160 source.n307 source.n306 185
R161 source.n296 source.n295 185
R162 source.n313 source.n312 185
R163 source.n315 source.n314 185
R164 source.n292 source.n291 185
R165 source.n322 source.n321 185
R166 source.n323 source.n290 185
R167 source.n325 source.n324 185
R168 source.n288 source.n287 185
R169 source.n331 source.n330 185
R170 source.n333 source.n332 185
R171 source.n284 source.n283 185
R172 source.n339 source.n338 185
R173 source.n341 source.n340 185
R174 source.n61 source.n60 185
R175 source.n59 source.n58 185
R176 source.n4 source.n3 185
R177 source.n53 source.n52 185
R178 source.n51 source.n50 185
R179 source.n8 source.n7 185
R180 source.n45 source.n44 185
R181 source.n43 source.n10 185
R182 source.n42 source.n41 185
R183 source.n13 source.n11 185
R184 source.n36 source.n35 185
R185 source.n34 source.n33 185
R186 source.n17 source.n16 185
R187 source.n28 source.n27 185
R188 source.n26 source.n25 185
R189 source.n21 source.n20 185
R190 source.n135 source.n134 185
R191 source.n133 source.n132 185
R192 source.n78 source.n77 185
R193 source.n127 source.n126 185
R194 source.n125 source.n124 185
R195 source.n82 source.n81 185
R196 source.n119 source.n118 185
R197 source.n117 source.n84 185
R198 source.n116 source.n115 185
R199 source.n87 source.n85 185
R200 source.n110 source.n109 185
R201 source.n108 source.n107 185
R202 source.n91 source.n90 185
R203 source.n102 source.n101 185
R204 source.n100 source.n99 185
R205 source.n95 source.n94 185
R206 source.n201 source.n200 185
R207 source.n199 source.n198 185
R208 source.n144 source.n143 185
R209 source.n193 source.n192 185
R210 source.n191 source.n190 185
R211 source.n148 source.n147 185
R212 source.n185 source.n184 185
R213 source.n183 source.n150 185
R214 source.n182 source.n181 185
R215 source.n153 source.n151 185
R216 source.n176 source.n175 185
R217 source.n174 source.n173 185
R218 source.n157 source.n156 185
R219 source.n168 source.n167 185
R220 source.n166 source.n165 185
R221 source.n161 source.n160 185
R222 source.n275 source.n274 185
R223 source.n273 source.n272 185
R224 source.n218 source.n217 185
R225 source.n267 source.n266 185
R226 source.n265 source.n264 185
R227 source.n222 source.n221 185
R228 source.n259 source.n258 185
R229 source.n257 source.n224 185
R230 source.n256 source.n255 185
R231 source.n227 source.n225 185
R232 source.n250 source.n249 185
R233 source.n248 source.n247 185
R234 source.n231 source.n230 185
R235 source.n242 source.n241 185
R236 source.n240 source.n239 185
R237 source.n235 source.n234 185
R238 source.n515 source.t8 149.524
R239 source.n441 source.t13 149.524
R240 source.n375 source.t21 149.524
R241 source.n301 source.t25 149.524
R242 source.n22 source.t32 149.524
R243 source.n96 source.t22 149.524
R244 source.n162 source.t6 149.524
R245 source.n236 source.t9 149.524
R246 source.n519 source.n513 104.615
R247 source.n520 source.n519 104.615
R248 source.n520 source.n509 104.615
R249 source.n527 source.n509 104.615
R250 source.n528 source.n527 104.615
R251 source.n528 source.n505 104.615
R252 source.n536 source.n505 104.615
R253 source.n537 source.n536 104.615
R254 source.n538 source.n537 104.615
R255 source.n538 source.n501 104.615
R256 source.n545 source.n501 104.615
R257 source.n546 source.n545 104.615
R258 source.n546 source.n497 104.615
R259 source.n553 source.n497 104.615
R260 source.n554 source.n553 104.615
R261 source.n445 source.n439 104.615
R262 source.n446 source.n445 104.615
R263 source.n446 source.n435 104.615
R264 source.n453 source.n435 104.615
R265 source.n454 source.n453 104.615
R266 source.n454 source.n431 104.615
R267 source.n462 source.n431 104.615
R268 source.n463 source.n462 104.615
R269 source.n464 source.n463 104.615
R270 source.n464 source.n427 104.615
R271 source.n471 source.n427 104.615
R272 source.n472 source.n471 104.615
R273 source.n472 source.n423 104.615
R274 source.n479 source.n423 104.615
R275 source.n480 source.n479 104.615
R276 source.n379 source.n373 104.615
R277 source.n380 source.n379 104.615
R278 source.n380 source.n369 104.615
R279 source.n387 source.n369 104.615
R280 source.n388 source.n387 104.615
R281 source.n388 source.n365 104.615
R282 source.n396 source.n365 104.615
R283 source.n397 source.n396 104.615
R284 source.n398 source.n397 104.615
R285 source.n398 source.n361 104.615
R286 source.n405 source.n361 104.615
R287 source.n406 source.n405 104.615
R288 source.n406 source.n357 104.615
R289 source.n413 source.n357 104.615
R290 source.n414 source.n413 104.615
R291 source.n305 source.n299 104.615
R292 source.n306 source.n305 104.615
R293 source.n306 source.n295 104.615
R294 source.n313 source.n295 104.615
R295 source.n314 source.n313 104.615
R296 source.n314 source.n291 104.615
R297 source.n322 source.n291 104.615
R298 source.n323 source.n322 104.615
R299 source.n324 source.n323 104.615
R300 source.n324 source.n287 104.615
R301 source.n331 source.n287 104.615
R302 source.n332 source.n331 104.615
R303 source.n332 source.n283 104.615
R304 source.n339 source.n283 104.615
R305 source.n340 source.n339 104.615
R306 source.n60 source.n59 104.615
R307 source.n59 source.n3 104.615
R308 source.n52 source.n3 104.615
R309 source.n52 source.n51 104.615
R310 source.n51 source.n7 104.615
R311 source.n44 source.n7 104.615
R312 source.n44 source.n43 104.615
R313 source.n43 source.n42 104.615
R314 source.n42 source.n11 104.615
R315 source.n35 source.n11 104.615
R316 source.n35 source.n34 104.615
R317 source.n34 source.n16 104.615
R318 source.n27 source.n16 104.615
R319 source.n27 source.n26 104.615
R320 source.n26 source.n20 104.615
R321 source.n134 source.n133 104.615
R322 source.n133 source.n77 104.615
R323 source.n126 source.n77 104.615
R324 source.n126 source.n125 104.615
R325 source.n125 source.n81 104.615
R326 source.n118 source.n81 104.615
R327 source.n118 source.n117 104.615
R328 source.n117 source.n116 104.615
R329 source.n116 source.n85 104.615
R330 source.n109 source.n85 104.615
R331 source.n109 source.n108 104.615
R332 source.n108 source.n90 104.615
R333 source.n101 source.n90 104.615
R334 source.n101 source.n100 104.615
R335 source.n100 source.n94 104.615
R336 source.n200 source.n199 104.615
R337 source.n199 source.n143 104.615
R338 source.n192 source.n143 104.615
R339 source.n192 source.n191 104.615
R340 source.n191 source.n147 104.615
R341 source.n184 source.n147 104.615
R342 source.n184 source.n183 104.615
R343 source.n183 source.n182 104.615
R344 source.n182 source.n151 104.615
R345 source.n175 source.n151 104.615
R346 source.n175 source.n174 104.615
R347 source.n174 source.n156 104.615
R348 source.n167 source.n156 104.615
R349 source.n167 source.n166 104.615
R350 source.n166 source.n160 104.615
R351 source.n274 source.n273 104.615
R352 source.n273 source.n217 104.615
R353 source.n266 source.n217 104.615
R354 source.n266 source.n265 104.615
R355 source.n265 source.n221 104.615
R356 source.n258 source.n221 104.615
R357 source.n258 source.n257 104.615
R358 source.n257 source.n256 104.615
R359 source.n256 source.n225 104.615
R360 source.n249 source.n225 104.615
R361 source.n249 source.n248 104.615
R362 source.n248 source.n230 104.615
R363 source.n241 source.n230 104.615
R364 source.n241 source.n240 104.615
R365 source.n240 source.n234 104.615
R366 source.t8 source.n513 52.3082
R367 source.t13 source.n439 52.3082
R368 source.t21 source.n373 52.3082
R369 source.t25 source.n299 52.3082
R370 source.t32 source.n20 52.3082
R371 source.t22 source.n94 52.3082
R372 source.t6 source.n160 52.3082
R373 source.t9 source.n234 52.3082
R374 source.n67 source.n66 42.8739
R375 source.n69 source.n68 42.8739
R376 source.n71 source.n70 42.8739
R377 source.n73 source.n72 42.8739
R378 source.n207 source.n206 42.8739
R379 source.n209 source.n208 42.8739
R380 source.n211 source.n210 42.8739
R381 source.n213 source.n212 42.8739
R382 source.n493 source.n492 42.8737
R383 source.n491 source.n490 42.8737
R384 source.n489 source.n488 42.8737
R385 source.n487 source.n486 42.8737
R386 source.n353 source.n352 42.8737
R387 source.n351 source.n350 42.8737
R388 source.n349 source.n348 42.8737
R389 source.n347 source.n346 42.8737
R390 source.n559 source.n558 29.8581
R391 source.n485 source.n484 29.8581
R392 source.n419 source.n418 29.8581
R393 source.n345 source.n344 29.8581
R394 source.n65 source.n64 29.8581
R395 source.n139 source.n138 29.8581
R396 source.n205 source.n204 29.8581
R397 source.n279 source.n278 29.8581
R398 source.n345 source.n279 22.0894
R399 source.n560 source.n65 16.4257
R400 source.n539 source.n504 13.1884
R401 source.n465 source.n430 13.1884
R402 source.n399 source.n364 13.1884
R403 source.n325 source.n290 13.1884
R404 source.n45 source.n10 13.1884
R405 source.n119 source.n84 13.1884
R406 source.n185 source.n150 13.1884
R407 source.n259 source.n224 13.1884
R408 source.n535 source.n534 12.8005
R409 source.n540 source.n502 12.8005
R410 source.n461 source.n460 12.8005
R411 source.n466 source.n428 12.8005
R412 source.n395 source.n394 12.8005
R413 source.n400 source.n362 12.8005
R414 source.n321 source.n320 12.8005
R415 source.n326 source.n288 12.8005
R416 source.n46 source.n8 12.8005
R417 source.n41 source.n12 12.8005
R418 source.n120 source.n82 12.8005
R419 source.n115 source.n86 12.8005
R420 source.n186 source.n148 12.8005
R421 source.n181 source.n152 12.8005
R422 source.n260 source.n222 12.8005
R423 source.n255 source.n226 12.8005
R424 source.n533 source.n506 12.0247
R425 source.n544 source.n543 12.0247
R426 source.n459 source.n432 12.0247
R427 source.n470 source.n469 12.0247
R428 source.n393 source.n366 12.0247
R429 source.n404 source.n403 12.0247
R430 source.n319 source.n292 12.0247
R431 source.n330 source.n329 12.0247
R432 source.n50 source.n49 12.0247
R433 source.n40 source.n13 12.0247
R434 source.n124 source.n123 12.0247
R435 source.n114 source.n87 12.0247
R436 source.n190 source.n189 12.0247
R437 source.n180 source.n153 12.0247
R438 source.n264 source.n263 12.0247
R439 source.n254 source.n227 12.0247
R440 source.n530 source.n529 11.249
R441 source.n547 source.n500 11.249
R442 source.n456 source.n455 11.249
R443 source.n473 source.n426 11.249
R444 source.n390 source.n389 11.249
R445 source.n407 source.n360 11.249
R446 source.n316 source.n315 11.249
R447 source.n333 source.n286 11.249
R448 source.n53 source.n6 11.249
R449 source.n37 source.n36 11.249
R450 source.n127 source.n80 11.249
R451 source.n111 source.n110 11.249
R452 source.n193 source.n146 11.249
R453 source.n177 source.n176 11.249
R454 source.n267 source.n220 11.249
R455 source.n251 source.n250 11.249
R456 source.n526 source.n508 10.4732
R457 source.n548 source.n498 10.4732
R458 source.n452 source.n434 10.4732
R459 source.n474 source.n424 10.4732
R460 source.n386 source.n368 10.4732
R461 source.n408 source.n358 10.4732
R462 source.n312 source.n294 10.4732
R463 source.n334 source.n284 10.4732
R464 source.n54 source.n4 10.4732
R465 source.n33 source.n15 10.4732
R466 source.n128 source.n78 10.4732
R467 source.n107 source.n89 10.4732
R468 source.n194 source.n144 10.4732
R469 source.n173 source.n155 10.4732
R470 source.n268 source.n218 10.4732
R471 source.n247 source.n229 10.4732
R472 source.n515 source.n514 10.2747
R473 source.n441 source.n440 10.2747
R474 source.n375 source.n374 10.2747
R475 source.n301 source.n300 10.2747
R476 source.n22 source.n21 10.2747
R477 source.n96 source.n95 10.2747
R478 source.n162 source.n161 10.2747
R479 source.n236 source.n235 10.2747
R480 source.n525 source.n510 9.69747
R481 source.n552 source.n551 9.69747
R482 source.n451 source.n436 9.69747
R483 source.n478 source.n477 9.69747
R484 source.n385 source.n370 9.69747
R485 source.n412 source.n411 9.69747
R486 source.n311 source.n296 9.69747
R487 source.n338 source.n337 9.69747
R488 source.n58 source.n57 9.69747
R489 source.n32 source.n17 9.69747
R490 source.n132 source.n131 9.69747
R491 source.n106 source.n91 9.69747
R492 source.n198 source.n197 9.69747
R493 source.n172 source.n157 9.69747
R494 source.n272 source.n271 9.69747
R495 source.n246 source.n231 9.69747
R496 source.n558 source.n557 9.45567
R497 source.n484 source.n483 9.45567
R498 source.n418 source.n417 9.45567
R499 source.n344 source.n343 9.45567
R500 source.n64 source.n63 9.45567
R501 source.n138 source.n137 9.45567
R502 source.n204 source.n203 9.45567
R503 source.n278 source.n277 9.45567
R504 source.n557 source.n556 9.3005
R505 source.n496 source.n495 9.3005
R506 source.n551 source.n550 9.3005
R507 source.n549 source.n548 9.3005
R508 source.n500 source.n499 9.3005
R509 source.n543 source.n542 9.3005
R510 source.n541 source.n540 9.3005
R511 source.n517 source.n516 9.3005
R512 source.n512 source.n511 9.3005
R513 source.n523 source.n522 9.3005
R514 source.n525 source.n524 9.3005
R515 source.n508 source.n507 9.3005
R516 source.n531 source.n530 9.3005
R517 source.n533 source.n532 9.3005
R518 source.n534 source.n503 9.3005
R519 source.n483 source.n482 9.3005
R520 source.n422 source.n421 9.3005
R521 source.n477 source.n476 9.3005
R522 source.n475 source.n474 9.3005
R523 source.n426 source.n425 9.3005
R524 source.n469 source.n468 9.3005
R525 source.n467 source.n466 9.3005
R526 source.n443 source.n442 9.3005
R527 source.n438 source.n437 9.3005
R528 source.n449 source.n448 9.3005
R529 source.n451 source.n450 9.3005
R530 source.n434 source.n433 9.3005
R531 source.n457 source.n456 9.3005
R532 source.n459 source.n458 9.3005
R533 source.n460 source.n429 9.3005
R534 source.n417 source.n416 9.3005
R535 source.n356 source.n355 9.3005
R536 source.n411 source.n410 9.3005
R537 source.n409 source.n408 9.3005
R538 source.n360 source.n359 9.3005
R539 source.n403 source.n402 9.3005
R540 source.n401 source.n400 9.3005
R541 source.n377 source.n376 9.3005
R542 source.n372 source.n371 9.3005
R543 source.n383 source.n382 9.3005
R544 source.n385 source.n384 9.3005
R545 source.n368 source.n367 9.3005
R546 source.n391 source.n390 9.3005
R547 source.n393 source.n392 9.3005
R548 source.n394 source.n363 9.3005
R549 source.n343 source.n342 9.3005
R550 source.n282 source.n281 9.3005
R551 source.n337 source.n336 9.3005
R552 source.n335 source.n334 9.3005
R553 source.n286 source.n285 9.3005
R554 source.n329 source.n328 9.3005
R555 source.n327 source.n326 9.3005
R556 source.n303 source.n302 9.3005
R557 source.n298 source.n297 9.3005
R558 source.n309 source.n308 9.3005
R559 source.n311 source.n310 9.3005
R560 source.n294 source.n293 9.3005
R561 source.n317 source.n316 9.3005
R562 source.n319 source.n318 9.3005
R563 source.n320 source.n289 9.3005
R564 source.n24 source.n23 9.3005
R565 source.n19 source.n18 9.3005
R566 source.n30 source.n29 9.3005
R567 source.n32 source.n31 9.3005
R568 source.n15 source.n14 9.3005
R569 source.n38 source.n37 9.3005
R570 source.n40 source.n39 9.3005
R571 source.n12 source.n9 9.3005
R572 source.n63 source.n62 9.3005
R573 source.n2 source.n1 9.3005
R574 source.n57 source.n56 9.3005
R575 source.n55 source.n54 9.3005
R576 source.n6 source.n5 9.3005
R577 source.n49 source.n48 9.3005
R578 source.n47 source.n46 9.3005
R579 source.n98 source.n97 9.3005
R580 source.n93 source.n92 9.3005
R581 source.n104 source.n103 9.3005
R582 source.n106 source.n105 9.3005
R583 source.n89 source.n88 9.3005
R584 source.n112 source.n111 9.3005
R585 source.n114 source.n113 9.3005
R586 source.n86 source.n83 9.3005
R587 source.n137 source.n136 9.3005
R588 source.n76 source.n75 9.3005
R589 source.n131 source.n130 9.3005
R590 source.n129 source.n128 9.3005
R591 source.n80 source.n79 9.3005
R592 source.n123 source.n122 9.3005
R593 source.n121 source.n120 9.3005
R594 source.n164 source.n163 9.3005
R595 source.n159 source.n158 9.3005
R596 source.n170 source.n169 9.3005
R597 source.n172 source.n171 9.3005
R598 source.n155 source.n154 9.3005
R599 source.n178 source.n177 9.3005
R600 source.n180 source.n179 9.3005
R601 source.n152 source.n149 9.3005
R602 source.n203 source.n202 9.3005
R603 source.n142 source.n141 9.3005
R604 source.n197 source.n196 9.3005
R605 source.n195 source.n194 9.3005
R606 source.n146 source.n145 9.3005
R607 source.n189 source.n188 9.3005
R608 source.n187 source.n186 9.3005
R609 source.n238 source.n237 9.3005
R610 source.n233 source.n232 9.3005
R611 source.n244 source.n243 9.3005
R612 source.n246 source.n245 9.3005
R613 source.n229 source.n228 9.3005
R614 source.n252 source.n251 9.3005
R615 source.n254 source.n253 9.3005
R616 source.n226 source.n223 9.3005
R617 source.n277 source.n276 9.3005
R618 source.n216 source.n215 9.3005
R619 source.n271 source.n270 9.3005
R620 source.n269 source.n268 9.3005
R621 source.n220 source.n219 9.3005
R622 source.n263 source.n262 9.3005
R623 source.n261 source.n260 9.3005
R624 source.n522 source.n521 8.92171
R625 source.n555 source.n496 8.92171
R626 source.n448 source.n447 8.92171
R627 source.n481 source.n422 8.92171
R628 source.n382 source.n381 8.92171
R629 source.n415 source.n356 8.92171
R630 source.n308 source.n307 8.92171
R631 source.n341 source.n282 8.92171
R632 source.n61 source.n2 8.92171
R633 source.n29 source.n28 8.92171
R634 source.n135 source.n76 8.92171
R635 source.n103 source.n102 8.92171
R636 source.n201 source.n142 8.92171
R637 source.n169 source.n168 8.92171
R638 source.n275 source.n216 8.92171
R639 source.n243 source.n242 8.92171
R640 source.n518 source.n512 8.14595
R641 source.n556 source.n494 8.14595
R642 source.n444 source.n438 8.14595
R643 source.n482 source.n420 8.14595
R644 source.n378 source.n372 8.14595
R645 source.n416 source.n354 8.14595
R646 source.n304 source.n298 8.14595
R647 source.n342 source.n280 8.14595
R648 source.n62 source.n0 8.14595
R649 source.n25 source.n19 8.14595
R650 source.n136 source.n74 8.14595
R651 source.n99 source.n93 8.14595
R652 source.n202 source.n140 8.14595
R653 source.n165 source.n159 8.14595
R654 source.n276 source.n214 8.14595
R655 source.n239 source.n233 8.14595
R656 source.n517 source.n514 7.3702
R657 source.n443 source.n440 7.3702
R658 source.n377 source.n374 7.3702
R659 source.n303 source.n300 7.3702
R660 source.n24 source.n21 7.3702
R661 source.n98 source.n95 7.3702
R662 source.n164 source.n161 7.3702
R663 source.n238 source.n235 7.3702
R664 source.n518 source.n517 5.81868
R665 source.n558 source.n494 5.81868
R666 source.n444 source.n443 5.81868
R667 source.n484 source.n420 5.81868
R668 source.n378 source.n377 5.81868
R669 source.n418 source.n354 5.81868
R670 source.n304 source.n303 5.81868
R671 source.n344 source.n280 5.81868
R672 source.n64 source.n0 5.81868
R673 source.n25 source.n24 5.81868
R674 source.n138 source.n74 5.81868
R675 source.n99 source.n98 5.81868
R676 source.n204 source.n140 5.81868
R677 source.n165 source.n164 5.81868
R678 source.n278 source.n214 5.81868
R679 source.n239 source.n238 5.81868
R680 source.n560 source.n559 5.66429
R681 source.n521 source.n512 5.04292
R682 source.n556 source.n555 5.04292
R683 source.n447 source.n438 5.04292
R684 source.n482 source.n481 5.04292
R685 source.n381 source.n372 5.04292
R686 source.n416 source.n415 5.04292
R687 source.n307 source.n298 5.04292
R688 source.n342 source.n341 5.04292
R689 source.n62 source.n61 5.04292
R690 source.n28 source.n19 5.04292
R691 source.n136 source.n135 5.04292
R692 source.n102 source.n93 5.04292
R693 source.n202 source.n201 5.04292
R694 source.n168 source.n159 5.04292
R695 source.n276 source.n275 5.04292
R696 source.n242 source.n233 5.04292
R697 source.n522 source.n510 4.26717
R698 source.n552 source.n496 4.26717
R699 source.n448 source.n436 4.26717
R700 source.n478 source.n422 4.26717
R701 source.n382 source.n370 4.26717
R702 source.n412 source.n356 4.26717
R703 source.n308 source.n296 4.26717
R704 source.n338 source.n282 4.26717
R705 source.n58 source.n2 4.26717
R706 source.n29 source.n17 4.26717