* NGSPICE file created from diffpair453.ext - technology: sky130A

.subckt diffpair453 minus drain_right drain_left source plus
X0 a_n1646_n3288# a_n1646_n3288# a_n1646_n3288# a_n1646_n3288# sky130_fd_pr__nfet_01v8 ad=4.68 pd=24.78 as=37.44 ps=198.24 w=12 l=0.6
X1 a_n1646_n3288# a_n1646_n3288# a_n1646_n3288# a_n1646_n3288# sky130_fd_pr__nfet_01v8 ad=4.68 pd=24.78 as=0 ps=0 w=12 l=0.6
X2 drain_right.t7 minus.t0 source.t4 a_n1646_n3288# sky130_fd_pr__nfet_01v8 ad=1.98 pd=12.33 as=1.98 ps=12.33 w=12 l=0.6
X3 a_n1646_n3288# a_n1646_n3288# a_n1646_n3288# a_n1646_n3288# sky130_fd_pr__nfet_01v8 ad=4.68 pd=24.78 as=0 ps=0 w=12 l=0.6
X4 a_n1646_n3288# a_n1646_n3288# a_n1646_n3288# a_n1646_n3288# sky130_fd_pr__nfet_01v8 ad=4.68 pd=24.78 as=0 ps=0 w=12 l=0.6
X5 source.t7 minus.t1 drain_right.t6 a_n1646_n3288# sky130_fd_pr__nfet_01v8 ad=1.98 pd=12.33 as=1.98 ps=12.33 w=12 l=0.6
X6 source.t12 plus.t0 drain_left.t7 a_n1646_n3288# sky130_fd_pr__nfet_01v8 ad=1.98 pd=12.33 as=1.98 ps=12.33 w=12 l=0.6
X7 source.t5 minus.t2 drain_right.t5 a_n1646_n3288# sky130_fd_pr__nfet_01v8 ad=4.68 pd=24.78 as=1.98 ps=12.33 w=12 l=0.6
X8 drain_right.t4 minus.t3 source.t11 a_n1646_n3288# sky130_fd_pr__nfet_01v8 ad=1.98 pd=12.33 as=1.98 ps=12.33 w=12 l=0.6
X9 source.t10 minus.t4 drain_right.t3 a_n1646_n3288# sky130_fd_pr__nfet_01v8 ad=4.68 pd=24.78 as=1.98 ps=12.33 w=12 l=0.6
X10 drain_left.t6 plus.t1 source.t13 a_n1646_n3288# sky130_fd_pr__nfet_01v8 ad=1.98 pd=12.33 as=4.68 ps=24.78 w=12 l=0.6
X11 source.t9 minus.t5 drain_right.t2 a_n1646_n3288# sky130_fd_pr__nfet_01v8 ad=1.98 pd=12.33 as=1.98 ps=12.33 w=12 l=0.6
X12 source.t3 plus.t2 drain_left.t5 a_n1646_n3288# sky130_fd_pr__nfet_01v8 ad=1.98 pd=12.33 as=1.98 ps=12.33 w=12 l=0.6
X13 drain_right.t1 minus.t6 source.t8 a_n1646_n3288# sky130_fd_pr__nfet_01v8 ad=1.98 pd=12.33 as=4.68 ps=24.78 w=12 l=0.6
X14 drain_left.t4 plus.t3 source.t2 a_n1646_n3288# sky130_fd_pr__nfet_01v8 ad=1.98 pd=12.33 as=1.98 ps=12.33 w=12 l=0.6
X15 drain_left.t3 plus.t4 source.t1 a_n1646_n3288# sky130_fd_pr__nfet_01v8 ad=1.98 pd=12.33 as=1.98 ps=12.33 w=12 l=0.6
X16 source.t15 plus.t5 drain_left.t2 a_n1646_n3288# sky130_fd_pr__nfet_01v8 ad=4.68 pd=24.78 as=1.98 ps=12.33 w=12 l=0.6
X17 drain_right.t0 minus.t7 source.t6 a_n1646_n3288# sky130_fd_pr__nfet_01v8 ad=1.98 pd=12.33 as=4.68 ps=24.78 w=12 l=0.6
X18 drain_left.t1 plus.t6 source.t14 a_n1646_n3288# sky130_fd_pr__nfet_01v8 ad=1.98 pd=12.33 as=4.68 ps=24.78 w=12 l=0.6
X19 source.t0 plus.t7 drain_left.t0 a_n1646_n3288# sky130_fd_pr__nfet_01v8 ad=4.68 pd=24.78 as=1.98 ps=12.33 w=12 l=0.6
R0 minus.n1 minus.t6 574.293
R1 minus.n7 minus.t4 574.293
R2 minus.n2 minus.t5 547.472
R3 minus.n3 minus.t3 547.472
R4 minus.n4 minus.t2 547.472
R5 minus.n8 minus.t0 547.472
R6 minus.n9 minus.t1 547.472
R7 minus.n10 minus.t7 547.472
R8 minus.n5 minus.n4 161.3
R9 minus.n11 minus.n10 161.3
R10 minus.n3 minus.n0 80.6037
R11 minus.n9 minus.n6 80.6037
R12 minus.n3 minus.n2 48.2005
R13 minus.n4 minus.n3 48.2005
R14 minus.n9 minus.n8 48.2005
R15 minus.n10 minus.n9 48.2005
R16 minus.n1 minus.n0 45.2318
R17 minus.n7 minus.n6 45.2318
R18 minus.n12 minus.n5 35.4702
R19 minus.n2 minus.n1 13.3799
R20 minus.n8 minus.n7 13.3799
R21 minus.n12 minus.n11 6.61414
R22 minus.n5 minus.n0 0.285035
R23 minus.n11 minus.n6 0.285035
R24 minus minus.n12 0.188
R25 source.n530 source.n470 289.615
R26 source.n462 source.n402 289.615
R27 source.n396 source.n336 289.615
R28 source.n328 source.n268 289.615
R29 source.n60 source.n0 289.615
R30 source.n128 source.n68 289.615
R31 source.n194 source.n134 289.615
R32 source.n262 source.n202 289.615
R33 source.n490 source.n489 185
R34 source.n495 source.n494 185
R35 source.n497 source.n496 185
R36 source.n486 source.n485 185
R37 source.n503 source.n502 185
R38 source.n505 source.n504 185
R39 source.n482 source.n481 185
R40 source.n512 source.n511 185
R41 source.n513 source.n480 185
R42 source.n515 source.n514 185
R43 source.n478 source.n477 185
R44 source.n521 source.n520 185
R45 source.n523 source.n522 185
R46 source.n474 source.n473 185
R47 source.n529 source.n528 185
R48 source.n531 source.n530 185
R49 source.n422 source.n421 185
R50 source.n427 source.n426 185
R51 source.n429 source.n428 185
R52 source.n418 source.n417 185
R53 source.n435 source.n434 185
R54 source.n437 source.n436 185
R55 source.n414 source.n413 185
R56 source.n444 source.n443 185
R57 source.n445 source.n412 185
R58 source.n447 source.n446 185
R59 source.n410 source.n409 185
R60 source.n453 source.n452 185
R61 source.n455 source.n454 185
R62 source.n406 source.n405 185
R63 source.n461 source.n460 185
R64 source.n463 source.n462 185
R65 source.n356 source.n355 185
R66 source.n361 source.n360 185
R67 source.n363 source.n362 185
R68 source.n352 source.n351 185
R69 source.n369 source.n368 185
R70 source.n371 source.n370 185
R71 source.n348 source.n347 185
R72 source.n378 source.n377 185
R73 source.n379 source.n346 185
R74 source.n381 source.n380 185
R75 source.n344 source.n343 185
R76 source.n387 source.n386 185
R77 source.n389 source.n388 185
R78 source.n340 source.n339 185
R79 source.n395 source.n394 185
R80 source.n397 source.n396 185
R81 source.n288 source.n287 185
R82 source.n293 source.n292 185
R83 source.n295 source.n294 185
R84 source.n284 source.n283 185
R85 source.n301 source.n300 185
R86 source.n303 source.n302 185
R87 source.n280 source.n279 185
R88 source.n310 source.n309 185
R89 source.n311 source.n278 185
R90 source.n313 source.n312 185
R91 source.n276 source.n275 185
R92 source.n319 source.n318 185
R93 source.n321 source.n320 185
R94 source.n272 source.n271 185
R95 source.n327 source.n326 185
R96 source.n329 source.n328 185
R97 source.n61 source.n60 185
R98 source.n59 source.n58 185
R99 source.n4 source.n3 185
R100 source.n53 source.n52 185
R101 source.n51 source.n50 185
R102 source.n8 source.n7 185
R103 source.n45 source.n44 185
R104 source.n43 source.n10 185
R105 source.n42 source.n41 185
R106 source.n13 source.n11 185
R107 source.n36 source.n35 185
R108 source.n34 source.n33 185
R109 source.n17 source.n16 185
R110 source.n28 source.n27 185
R111 source.n26 source.n25 185
R112 source.n21 source.n20 185
R113 source.n129 source.n128 185
R114 source.n127 source.n126 185
R115 source.n72 source.n71 185
R116 source.n121 source.n120 185
R117 source.n119 source.n118 185
R118 source.n76 source.n75 185
R119 source.n113 source.n112 185
R120 source.n111 source.n78 185
R121 source.n110 source.n109 185
R122 source.n81 source.n79 185
R123 source.n104 source.n103 185
R124 source.n102 source.n101 185
R125 source.n85 source.n84 185
R126 source.n96 source.n95 185
R127 source.n94 source.n93 185
R128 source.n89 source.n88 185
R129 source.n195 source.n194 185
R130 source.n193 source.n192 185
R131 source.n138 source.n137 185
R132 source.n187 source.n186 185
R133 source.n185 source.n184 185
R134 source.n142 source.n141 185
R135 source.n179 source.n178 185
R136 source.n177 source.n144 185
R137 source.n176 source.n175 185
R138 source.n147 source.n145 185
R139 source.n170 source.n169 185
R140 source.n168 source.n167 185
R141 source.n151 source.n150 185
R142 source.n162 source.n161 185
R143 source.n160 source.n159 185
R144 source.n155 source.n154 185
R145 source.n263 source.n262 185
R146 source.n261 source.n260 185
R147 source.n206 source.n205 185
R148 source.n255 source.n254 185
R149 source.n253 source.n252 185
R150 source.n210 source.n209 185
R151 source.n247 source.n246 185
R152 source.n245 source.n212 185
R153 source.n244 source.n243 185
R154 source.n215 source.n213 185
R155 source.n238 source.n237 185
R156 source.n236 source.n235 185
R157 source.n219 source.n218 185
R158 source.n230 source.n229 185
R159 source.n228 source.n227 185
R160 source.n223 source.n222 185
R161 source.n491 source.t6 149.524
R162 source.n423 source.t10 149.524
R163 source.n357 source.t14 149.524
R164 source.n289 source.t0 149.524
R165 source.n22 source.t13 149.524
R166 source.n90 source.t15 149.524
R167 source.n156 source.t8 149.524
R168 source.n224 source.t5 149.524
R169 source.n495 source.n489 104.615
R170 source.n496 source.n495 104.615
R171 source.n496 source.n485 104.615
R172 source.n503 source.n485 104.615
R173 source.n504 source.n503 104.615
R174 source.n504 source.n481 104.615
R175 source.n512 source.n481 104.615
R176 source.n513 source.n512 104.615
R177 source.n514 source.n513 104.615
R178 source.n514 source.n477 104.615
R179 source.n521 source.n477 104.615
R180 source.n522 source.n521 104.615
R181 source.n522 source.n473 104.615
R182 source.n529 source.n473 104.615
R183 source.n530 source.n529 104.615
R184 source.n427 source.n421 104.615
R185 source.n428 source.n427 104.615
R186 source.n428 source.n417 104.615
R187 source.n435 source.n417 104.615
R188 source.n436 source.n435 104.615
R189 source.n436 source.n413 104.615
R190 source.n444 source.n413 104.615
R191 source.n445 source.n444 104.615
R192 source.n446 source.n445 104.615
R193 source.n446 source.n409 104.615
R194 source.n453 source.n409 104.615
R195 source.n454 source.n453 104.615
R196 source.n454 source.n405 104.615
R197 source.n461 source.n405 104.615
R198 source.n462 source.n461 104.615
R199 source.n361 source.n355 104.615
R200 source.n362 source.n361 104.615
R201 source.n362 source.n351 104.615
R202 source.n369 source.n351 104.615
R203 source.n370 source.n369 104.615
R204 source.n370 source.n347 104.615
R205 source.n378 source.n347 104.615
R206 source.n379 source.n378 104.615
R207 source.n380 source.n379 104.615
R208 source.n380 source.n343 104.615
R209 source.n387 source.n343 104.615
R210 source.n388 source.n387 104.615
R211 source.n388 source.n339 104.615
R212 source.n395 source.n339 104.615
R213 source.n396 source.n395 104.615
R214 source.n293 source.n287 104.615
R215 source.n294 source.n293 104.615
R216 source.n294 source.n283 104.615
R217 source.n301 source.n283 104.615
R218 source.n302 source.n301 104.615
R219 source.n302 source.n279 104.615
R220 source.n310 source.n279 104.615
R221 source.n311 source.n310 104.615
R222 source.n312 source.n311 104.615
R223 source.n312 source.n275 104.615
R224 source.n319 source.n275 104.615
R225 source.n320 source.n319 104.615
R226 source.n320 source.n271 104.615
R227 source.n327 source.n271 104.615
R228 source.n328 source.n327 104.615
R229 source.n60 source.n59 104.615
R230 source.n59 source.n3 104.615
R231 source.n52 source.n3 104.615
R232 source.n52 source.n51 104.615
R233 source.n51 source.n7 104.615
R234 source.n44 source.n7 104.615
R235 source.n44 source.n43 104.615
R236 source.n43 source.n42 104.615
R237 source.n42 source.n11 104.615
R238 source.n35 source.n11 104.615
R239 source.n35 source.n34 104.615
R240 source.n34 source.n16 104.615
R241 source.n27 source.n16 104.615
R242 source.n27 source.n26 104.615
R243 source.n26 source.n20 104.615
R244 source.n128 source.n127 104.615
R245 source.n127 source.n71 104.615
R246 source.n120 source.n71 104.615
R247 source.n120 source.n119 104.615
R248 source.n119 source.n75 104.615
R249 source.n112 source.n75 104.615
R250 source.n112 source.n111 104.615
R251 source.n111 source.n110 104.615
R252 source.n110 source.n79 104.615
R253 source.n103 source.n79 104.615
R254 source.n103 source.n102 104.615
R255 source.n102 source.n84 104.615
R256 source.n95 source.n84 104.615
R257 source.n95 source.n94 104.615
R258 source.n94 source.n88 104.615
R259 source.n194 source.n193 104.615
R260 source.n193 source.n137 104.615
R261 source.n186 source.n137 104.615
R262 source.n186 source.n185 104.615
R263 source.n185 source.n141 104.615
R264 source.n178 source.n141 104.615
R265 source.n178 source.n177 104.615
R266 source.n177 source.n176 104.615
R267 source.n176 source.n145 104.615
R268 source.n169 source.n145 104.615
R269 source.n169 source.n168 104.615
R270 source.n168 source.n150 104.615
R271 source.n161 source.n150 104.615
R272 source.n161 source.n160 104.615
R273 source.n160 source.n154 104.615
R274 source.n262 source.n261 104.615
R275 source.n261 source.n205 104.615
R276 source.n254 source.n205 104.615
R277 source.n254 source.n253 104.615
R278 source.n253 source.n209 104.615
R279 source.n246 source.n209 104.615
R280 source.n246 source.n245 104.615
R281 source.n245 source.n244 104.615
R282 source.n244 source.n213 104.615
R283 source.n237 source.n213 104.615
R284 source.n237 source.n236 104.615
R285 source.n236 source.n218 104.615
R286 source.n229 source.n218 104.615
R287 source.n229 source.n228 104.615
R288 source.n228 source.n222 104.615
R289 source.t6 source.n489 52.3082
R290 source.t10 source.n421 52.3082
R291 source.t14 source.n355 52.3082
R292 source.t0 source.n287 52.3082
R293 source.t13 source.n20 52.3082
R294 source.t15 source.n88 52.3082
R295 source.t8 source.n154 52.3082
R296 source.t5 source.n222 52.3082
R297 source.n67 source.n66 42.8739
R298 source.n201 source.n200 42.8739
R299 source.n469 source.n468 42.8737
R300 source.n335 source.n334 42.8737
R301 source.n535 source.n534 29.8581
R302 source.n467 source.n466 29.8581
R303 source.n401 source.n400 29.8581
R304 source.n333 source.n332 29.8581
R305 source.n65 source.n64 29.8581
R306 source.n133 source.n132 29.8581
R307 source.n199 source.n198 29.8581
R308 source.n267 source.n266 29.8581
R309 source.n333 source.n267 22.0894
R310 source.n536 source.n65 16.4257
R311 source.n515 source.n480 13.1884
R312 source.n447 source.n412 13.1884
R313 source.n381 source.n346 13.1884
R314 source.n313 source.n278 13.1884
R315 source.n45 source.n10 13.1884
R316 source.n113 source.n78 13.1884
R317 source.n179 source.n144 13.1884
R318 source.n247 source.n212 13.1884
R319 source.n511 source.n510 12.8005
R320 source.n516 source.n478 12.8005
R321 source.n443 source.n442 12.8005
R322 source.n448 source.n410 12.8005
R323 source.n377 source.n376 12.8005
R324 source.n382 source.n344 12.8005
R325 source.n309 source.n308 12.8005
R326 source.n314 source.n276 12.8005
R327 source.n46 source.n8 12.8005
R328 source.n41 source.n12 12.8005
R329 source.n114 source.n76 12.8005
R330 source.n109 source.n80 12.8005
R331 source.n180 source.n142 12.8005
R332 source.n175 source.n146 12.8005
R333 source.n248 source.n210 12.8005
R334 source.n243 source.n214 12.8005
R335 source.n509 source.n482 12.0247
R336 source.n520 source.n519 12.0247
R337 source.n441 source.n414 12.0247
R338 source.n452 source.n451 12.0247
R339 source.n375 source.n348 12.0247
R340 source.n386 source.n385 12.0247
R341 source.n307 source.n280 12.0247
R342 source.n318 source.n317 12.0247
R343 source.n50 source.n49 12.0247
R344 source.n40 source.n13 12.0247
R345 source.n118 source.n117 12.0247
R346 source.n108 source.n81 12.0247
R347 source.n184 source.n183 12.0247
R348 source.n174 source.n147 12.0247
R349 source.n252 source.n251 12.0247
R350 source.n242 source.n215 12.0247
R351 source.n506 source.n505 11.249
R352 source.n523 source.n476 11.249
R353 source.n438 source.n437 11.249
R354 source.n455 source.n408 11.249
R355 source.n372 source.n371 11.249
R356 source.n389 source.n342 11.249
R357 source.n304 source.n303 11.249
R358 source.n321 source.n274 11.249
R359 source.n53 source.n6 11.249
R360 source.n37 source.n36 11.249
R361 source.n121 source.n74 11.249
R362 source.n105 source.n104 11.249
R363 source.n187 source.n140 11.249
R364 source.n171 source.n170 11.249
R365 source.n255 source.n208 11.249
R366 source.n239 source.n238 11.249
R367 source.n502 source.n484 10.4732
R368 source.n524 source.n474 10.4732
R369 source.n434 source.n416 10.4732
R370 source.n456 source.n406 10.4732
R371 source.n368 source.n350 10.4732
R372 source.n390 source.n340 10.4732
R373 source.n300 source.n282 10.4732
R374 source.n322 source.n272 10.4732
R375 source.n54 source.n4 10.4732
R376 source.n33 source.n15 10.4732
R377 source.n122 source.n72 10.4732
R378 source.n101 source.n83 10.4732
R379 source.n188 source.n138 10.4732
R380 source.n167 source.n149 10.4732
R381 source.n256 source.n206 10.4732
R382 source.n235 source.n217 10.4732
R383 source.n491 source.n490 10.2747
R384 source.n423 source.n422 10.2747
R385 source.n357 source.n356 10.2747
R386 source.n289 source.n288 10.2747
R387 source.n22 source.n21 10.2747
R388 source.n90 source.n89 10.2747
R389 source.n156 source.n155 10.2747
R390 source.n224 source.n223 10.2747
R391 source.n501 source.n486 9.69747
R392 source.n528 source.n527 9.69747
R393 source.n433 source.n418 9.69747
R394 source.n460 source.n459 9.69747
R395 source.n367 source.n352 9.69747
R396 source.n394 source.n393 9.69747
R397 source.n299 source.n284 9.69747
R398 source.n326 source.n325 9.69747
R399 source.n58 source.n57 9.69747
R400 source.n32 source.n17 9.69747
R401 source.n126 source.n125 9.69747
R402 source.n100 source.n85 9.69747
R403 source.n192 source.n191 9.69747
R404 source.n166 source.n151 9.69747
R405 source.n260 source.n259 9.69747
R406 source.n234 source.n219 9.69747
R407 source.n534 source.n533 9.45567
R408 source.n466 source.n465 9.45567
R409 source.n400 source.n399 9.45567
R410 source.n332 source.n331 9.45567
R411 source.n64 source.n63 9.45567
R412 source.n132 source.n131 9.45567
R413 source.n198 source.n197 9.45567
R414 source.n266 source.n265 9.45567
R415 source.n533 source.n532 9.3005
R416 source.n472 source.n471 9.3005
R417 source.n527 source.n526 9.3005
R418 source.n525 source.n524 9.3005
R419 source.n476 source.n475 9.3005
R420 source.n519 source.n518 9.3005
R421 source.n517 source.n516 9.3005
R422 source.n493 source.n492 9.3005
R423 source.n488 source.n487 9.3005
R424 source.n499 source.n498 9.3005
R425 source.n501 source.n500 9.3005
R426 source.n484 source.n483 9.3005
R427 source.n507 source.n506 9.3005
R428 source.n509 source.n508 9.3005
R429 source.n510 source.n479 9.3005
R430 source.n465 source.n464 9.3005
R431 source.n404 source.n403 9.3005
R432 source.n459 source.n458 9.3005
R433 source.n457 source.n456 9.3005
R434 source.n408 source.n407 9.3005
R435 source.n451 source.n450 9.3005
R436 source.n449 source.n448 9.3005
R437 source.n425 source.n424 9.3005
R438 source.n420 source.n419 9.3005
R439 source.n431 source.n430 9.3005
R440 source.n433 source.n432 9.3005
R441 source.n416 source.n415 9.3005
R442 source.n439 source.n438 9.3005
R443 source.n441 source.n440 9.3005
R444 source.n442 source.n411 9.3005
R445 source.n399 source.n398 9.3005
R446 source.n338 source.n337 9.3005
R447 source.n393 source.n392 9.3005
R448 source.n391 source.n390 9.3005
R449 source.n342 source.n341 9.3005
R450 source.n385 source.n384 9.3005
R451 source.n383 source.n382 9.3005
R452 source.n359 source.n358 9.3005
R453 source.n354 source.n353 9.3005
R454 source.n365 source.n364 9.3005
R455 source.n367 source.n366 9.3005
R456 source.n350 source.n349 9.3005
R457 source.n373 source.n372 9.3005
R458 source.n375 source.n374 9.3005
R459 source.n376 source.n345 9.3005
R460 source.n331 source.n330 9.3005
R461 source.n270 source.n269 9.3005
R462 source.n325 source.n324 9.3005
R463 source.n323 source.n322 9.3005
R464 source.n274 source.n273 9.3005
R465 source.n317 source.n316 9.3005
R466 source.n315 source.n314 9.3005
R467 source.n291 source.n290 9.3005
R468 source.n286 source.n285 9.3005
R469 source.n297 source.n296 9.3005
R470 source.n299 source.n298 9.3005
R471 source.n282 source.n281 9.3005
R472 source.n305 source.n304 9.3005
R473 source.n307 source.n306 9.3005
R474 source.n308 source.n277 9.3005
R475 source.n24 source.n23 9.3005
R476 source.n19 source.n18 9.3005
R477 source.n30 source.n29 9.3005
R478 source.n32 source.n31 9.3005
R479 source.n15 source.n14 9.3005
R480 source.n38 source.n37 9.3005
R481 source.n40 source.n39 9.3005
R482 source.n12 source.n9 9.3005
R483 source.n63 source.n62 9.3005
R484 source.n2 source.n1 9.3005
R485 source.n57 source.n56 9.3005
R486 source.n55 source.n54 9.3005
R487 source.n6 source.n5 9.3005
R488 source.n49 source.n48 9.3005
R489 source.n47 source.n46 9.3005
R490 source.n92 source.n91 9.3005
R491 source.n87 source.n86 9.3005
R492 source.n98 source.n97 9.3005
R493 source.n100 source.n99 9.3005
R494 source.n83 source.n82 9.3005
R495 source.n106 source.n105 9.3005
R496 source.n108 source.n107 9.3005
R497 source.n80 source.n77 9.3005
R498 source.n131 source.n130 9.3005
R499 source.n70 source.n69 9.3005
R500 source.n125 source.n124 9.3005
R501 source.n123 source.n122 9.3005
R502 source.n74 source.n73 9.3005
R503 source.n117 source.n116 9.3005
R504 source.n115 source.n114 9.3005
R505 source.n158 source.n157 9.3005
R506 source.n153 source.n152 9.3005
R507 source.n164 source.n163 9.3005
R508 source.n166 source.n165 9.3005
R509 source.n149 source.n148 9.3005
R510 source.n172 source.n171 9.3005
R511 source.n174 source.n173 9.3005
R512 source.n146 source.n143 9.3005
R513 source.n197 source.n196 9.3005
R514 source.n136 source.n135 9.3005
R515 source.n191 source.n190 9.3005
R516 source.n189 source.n188 9.3005
R517 source.n140 source.n139 9.3005
R518 source.n183 source.n182 9.3005
R519 source.n181 source.n180 9.3005
R520 source.n226 source.n225 9.3005
R521 source.n221 source.n220 9.3005
R522 source.n232 source.n231 9.3005
R523 source.n234 source.n233 9.3005
R524 source.n217 source.n216 9.3005
R525 source.n240 source.n239 9.3005
R526 source.n242 source.n241 9.3005
R527 source.n214 source.n211 9.3005
R528 source.n265 source.n264 9.3005
R529 source.n204 source.n203 9.3005
R530 source.n259 source.n258 9.3005
R531 source.n257 source.n256 9.3005
R532 source.n208 source.n207 9.3005
R533 source.n251 source.n250 9.3005
R534 source.n249 source.n248 9.3005
R535 source.n498 source.n497 8.92171
R536 source.n531 source.n472 8.92171
R537 source.n430 source.n429 8.92171
R538 source.n463 source.n404 8.92171
R539 source.n364 source.n363 8.92171
R540 source.n397 source.n338 8.92171
R541 source.n296 source.n295 8.92171
R542 source.n329 source.n270 8.92171
R543 source.n61 source.n2 8.92171
R544 source.n29 source.n28 8.92171
R545 source.n129 source.n70 8.92171
R546 source.n97 source.n96 8.92171
R547 source.n195 source.n136 8.92171
R548 source.n163 source.n162 8.92171
R549 source.n263 source.n204 8.92171
R550 source.n231 source.n230 8.92171
R551 source.n494 source.n488 8.14595
R552 source.n532 source.n470 8.14595
R553 source.n426 source.n420 8.14595
R554 source.n464 source.n402 8.14595
R555 source.n360 source.n354 8.14595
R556 source.n398 source.n336 8.14595
R557 source.n292 source.n286 8.14595
R558 source.n330 source.n268 8.14595
R559 source.n62 source.n0 8.14595
R560 source.n25 source.n19 8.14595
R561 source.n130 source.n68 8.14595
R562 source.n93 source.n87 8.14595
R563 source.n196 source.n134 8.14595
R564 source.n159 source.n153 8.14595
R565 source.n264 source.n202 8.14595
R566 source.n227 source.n221 8.14595
R567 source.n493 source.n490 7.3702
R568 source.n425 source.n422 7.3702
R569 source.n359 source.n356 7.3702
R570 source.n291 source.n288 7.3702
R571 source.n24 source.n21 7.3702
R572 source.n92 source.n89 7.3702
R573 source.n158 source.n155 7.3702
R574 source.n226 source.n223 7.3702
R575 source.n494 source.n493 5.81868
R576 source.n534 source.n470 5.81868
R577 source.n426 source.n425 5.81868
R578 source.n466 source.n402 5.81868
R579 source.n360 source.n359 5.81868
R580 source.n400 source.n336 5.81868
R581 source.n292 source.n291 5.81868
R582 source.n332 source.n268 5.81868
R583 source.n64 source.n0 5.81868
R584 source.n25 source.n24 5.81868
R585 source.n132 source.n68 5.81868
R586 source.n93 source.n92 5.81868
R587 source.n198 source.n134 5.81868
R588 source.n159 source.n158 5.81868
R589 source.n266 source.n202 5.81868
R590 source.n227 source.n226 5.81868
R591 source.n536 source.n535 5.66429
R592 source.n497 source.n488 5.04292
R593 source.n532 source.n531 5.04292
R594 source.n429 source.n420 5.04292
R595 source.n464 source.n463 5.04292
R596 source.n363 source.n354 5.04292
R597 source.n398 source.n397 5.04292
R598 source.n295 source.n286 5.04292
R599 source.n330 source.n329 5.04292
R600 source.n62 source.n61 5.04292
R601 source.n28 source.n19 5.04292
R602 source.n130 source.n129 5.04292
R603 source.n96 source.n87 5.04292
R604 source.n196 source.n195 5.04292
R605 source.n162 source.n153 5.04292
R606 source.n264 source.n263 5.04292
R607 source.n230 source.n221 5.04292
R608 source.n498 source.n486 4.26717
R609 source.n528 source.n472 4.26717
R610 source.n430 source.n418 4.26717
R611 source.n460 source.n404 4.26717
R612 source.n364 source.n352 4.26717
R613 source.n394 source.n338 4.26717
R614 source.n296 source.n284 4.26717
R615 source.n326 source.n270 4.26717
R616 source.n58 source.n2 4.26717
R617 source.n29 source.n17 4.26717
R618 source.n126 source.n70 4.26717
R619 source.n97 source.n85 4.26717
R620 source.n192 source.n136 4.26717
R621 source.n163 source.n151 4.26717
R622 source.n260 source.n204 4.26717
R623 source.n231 source.n219 4.26717
R624 source.n502 source.n501 3.49141
R625 source.n527 source.n474 3.49141
R626 source.n434 source.n433 3.49141
R627 source.n459 source.n406 3.49141
R628 source.n368 source.n367 3.49141
R629 source.n393 source.n340 3.49141
R630 source.n300 source.n299 3.49141
R631 source.n325 source.n272 3.49141
R632 source.n57 source.n4 3.49141
R633 source.n33 source.n32 3.49141
R634 source.n125 source.n72 3.49141
R635 source.n101 source.n100 3.49141
R636 source.n191 source.n138 3.49141
R637 source.n167 source.n166 3.49141
R638 source.n259 source.n206 3.49141
R639 source.n235 source.n234 3.49141
R640 source.n492 source.n491 2.84303
R641 source.n424 source.n423 2.84303
R642 source.n358 source.n357 2.84303
R643 source.n290 source.n289 2.84303
R644 source.n23 source.n22 2.84303
R645 source.n91 source.n90 2.84303
R646 source.n157 source.n156 2.84303
R647 source.n225 source.n224 2.84303
R648 source.n505 source.n484 2.71565
R649 source.n524 source.n523 2.71565
R650 source.n437 source.n416 2.71565
R651 source.n456 source.n455 2.71565
R652 source.n371 source.n350 2.71565
R653 source.n390 source.n389 2.71565
R654 source.n303 source.n282 2.71565
R655 source.n322 source.n321 2.71565
R656 source.n54 source.n53 2.71565
R657 source.n36 source.n15 2.71565
R658 source.n122 source.n121 2.71565
R659 source.n104 source.n83 2.71565
R660 source.n188 source.n187 2.71565
R661 source.n170 source.n149 2.71565
R662 source.n256 source.n255 2.71565
R663 source.n238 source.n217 2.71565
R664 source.n506 source.n482 1.93989
R665 source.n520 source.n476 1.93989
R666 source.n438 source.n414 1.93989
R667 source.n452 source.n408 1.93989
R668 source.n372 source.n348 1.93989
R669 source.n386 source.n342 1.93989
R670 source.n304 source.n280 1.93989
R671 source.n318 source.n274 1.93989
R672 source.n50 source.n6 1.93989
R673 source.n37 source.n13 1.93989
R674 source.n118 source.n74 1.93989
R675 source.n105 source.n81 1.93989
R676 source.n184 source.n140 1.93989
R677 source.n171 source.n147 1.93989
R678 source.n252 source.n208 1.93989
R679 source.n239 source.n215 1.93989
R680 source.n468 source.t4 1.6505
R681 source.n468 source.t7 1.6505
R682 source.n334 source.t2 1.6505
R683 source.n334 source.t12 1.6505
R684 source.n66 source.t1 1.6505
R685 source.n66 source.t3 1.6505
R686 source.n200 source.t11 1.6505
R687 source.n200 source.t9 1.6505
R688 source.n511 source.n509 1.16414
R689 source.n519 source.n478 1.16414
R690 source.n443 source.n441 1.16414
R691 source.n451 source.n410 1.16414
R692 source.n377 source.n375 1.16414
R693 source.n385 source.n344 1.16414
R694 source.n309 source.n307 1.16414
R695 source.n317 source.n276 1.16414
R696 source.n49 source.n8 1.16414
R697 source.n41 source.n40 1.16414
R698 source.n117 source.n76 1.16414
R699 source.n109 source.n108 1.16414
R700 source.n183 source.n142 1.16414
R701 source.n175 source.n174 1.16414
R702 source.n251 source.n210 1.16414
R703 source.n243 source.n242 1.16414
R704 source.n267 source.n201 0.802224
R705 source.n201 source.n199 0.802224
R706 source.n133 source.n67 0.802224
R707 source.n67 source.n65 0.802224
R708 source.n335 source.n333 0.802224
R709 source.n401 source.n335 0.802224
R710 source.n469 source.n467 0.802224
R711 source.n535 source.n469 0.802224
R712 source.n199 source.n133 0.470328
R713 source.n467 source.n401 0.470328
R714 source.n510 source.n480 0.388379
R715 source.n516 source.n515 0.388379
R716 source.n442 source.n412 0.388379
R717 source.n448 source.n447 0.388379
R718 source.n376 source.n346 0.388379
R719 source.n382 source.n381 0.388379
R720 source.n308 source.n278 0.388379
R721 source.n314 source.n313 0.388379
R722 source.n46 source.n45 0.388379
R723 source.n12 source.n10 0.388379
R724 source.n114 source.n113 0.388379
R725 source.n80 source.n78 0.388379
R726 source.n180 source.n179 0.388379
R727 source.n146 source.n144 0.388379
R728 source.n248 source.n247 0.388379
R729 source.n214 source.n212 0.388379
R730 source source.n536 0.188
R731 source.n492 source.n487 0.155672
R732 source.n499 source.n487 0.155672
R733 source.n500 source.n499 0.155672
R734 source.n500 source.n483 0.155672
R735 source.n507 source.n483 0.155672
R736 source.n508 source.n507 0.155672
R737 source.n508 source.n479 0.155672
R738 source.n517 source.n479 0.155672
R739 source.n518 source.n517 0.155672
R740 source.n518 source.n475 0.155672
R741 source.n525 source.n475 0.155672
R742 source.n526 source.n525 0.155672
R743 source.n526 source.n471 0.155672
R744 source.n533 source.n471 0.155672
R745 source.n424 source.n419 0.155672
R746 source.n431 source.n419 0.155672
R747 source.n432 source.n431 0.155672
R748 source.n432 source.n415 0.155672
R749 source.n439 source.n415 0.155672
R750 source.n440 source.n439 0.155672
R751 source.n440 source.n411 0.155672
R752 source.n449 source.n411 0.155672
R753 source.n450 source.n449 0.155672
R754 source.n450 source.n407 0.155672
R755 source.n457 source.n407 0.155672
R756 source.n458 source.n457 0.155672
R757 source.n458 source.n403 0.155672
R758 source.n465 source.n403 0.155672
R759 source.n358 source.n353 0.155672
R760 source.n365 source.n353 0.155672
R761 source.n366 source.n365 0.155672
R762 source.n366 source.n349 0.155672
R763 source.n373 source.n349 0.155672
R764 source.n374 source.n373 0.155672
R765 source.n374 source.n345 0.155672
R766 source.n383 source.n345 0.155672
R767 source.n384 source.n383 0.155672
R768 source.n384 source.n341 0.155672
R769 source.n391 source.n341 0.155672
R770 source.n392 source.n391 0.155672
R771 source.n392 source.n337 0.155672
R772 source.n399 source.n337 0.155672