* NGSPICE file created from diffpair478.ext - technology: sky130A

.subckt diffpair478 minus drain_right drain_left source plus
X0 drain_right.t19 minus.t0 source.t38 a_n3202_n3288# sky130_fd_pr__nfet_01v8 ad=1.98 pd=12.33 as=1.98 ps=12.33 w=12 l=0.8
X1 a_n3202_n3288# a_n3202_n3288# a_n3202_n3288# a_n3202_n3288# sky130_fd_pr__nfet_01v8 ad=4.68 pd=24.78 as=37.44 ps=198.24 w=12 l=0.8
X2 drain_right.t18 minus.t1 source.t22 a_n3202_n3288# sky130_fd_pr__nfet_01v8 ad=1.98 pd=12.33 as=4.68 ps=24.78 w=12 l=0.8
X3 source.t9 plus.t0 drain_left.t19 a_n3202_n3288# sky130_fd_pr__nfet_01v8 ad=1.98 pd=12.33 as=1.98 ps=12.33 w=12 l=0.8
X4 a_n3202_n3288# a_n3202_n3288# a_n3202_n3288# a_n3202_n3288# sky130_fd_pr__nfet_01v8 ad=4.68 pd=24.78 as=0 ps=0 w=12 l=0.8
X5 drain_right.t17 minus.t2 source.t25 a_n3202_n3288# sky130_fd_pr__nfet_01v8 ad=1.98 pd=12.33 as=1.98 ps=12.33 w=12 l=0.8
X6 drain_right.t16 minus.t3 source.t29 a_n3202_n3288# sky130_fd_pr__nfet_01v8 ad=1.98 pd=12.33 as=1.98 ps=12.33 w=12 l=0.8
X7 source.t6 plus.t1 drain_left.t18 a_n3202_n3288# sky130_fd_pr__nfet_01v8 ad=1.98 pd=12.33 as=1.98 ps=12.33 w=12 l=0.8
X8 a_n3202_n3288# a_n3202_n3288# a_n3202_n3288# a_n3202_n3288# sky130_fd_pr__nfet_01v8 ad=4.68 pd=24.78 as=0 ps=0 w=12 l=0.8
X9 source.t15 plus.t2 drain_left.t17 a_n3202_n3288# sky130_fd_pr__nfet_01v8 ad=1.98 pd=12.33 as=1.98 ps=12.33 w=12 l=0.8
X10 drain_left.t16 plus.t3 source.t7 a_n3202_n3288# sky130_fd_pr__nfet_01v8 ad=1.98 pd=12.33 as=1.98 ps=12.33 w=12 l=0.8
X11 source.t34 minus.t4 drain_right.t15 a_n3202_n3288# sky130_fd_pr__nfet_01v8 ad=4.68 pd=24.78 as=1.98 ps=12.33 w=12 l=0.8
X12 drain_right.t14 minus.t5 source.t23 a_n3202_n3288# sky130_fd_pr__nfet_01v8 ad=1.98 pd=12.33 as=1.98 ps=12.33 w=12 l=0.8
X13 drain_left.t15 plus.t4 source.t1 a_n3202_n3288# sky130_fd_pr__nfet_01v8 ad=1.98 pd=12.33 as=1.98 ps=12.33 w=12 l=0.8
X14 drain_right.t13 minus.t6 source.t26 a_n3202_n3288# sky130_fd_pr__nfet_01v8 ad=1.98 pd=12.33 as=1.98 ps=12.33 w=12 l=0.8
X15 a_n3202_n3288# a_n3202_n3288# a_n3202_n3288# a_n3202_n3288# sky130_fd_pr__nfet_01v8 ad=4.68 pd=24.78 as=0 ps=0 w=12 l=0.8
X16 drain_left.t14 plus.t5 source.t17 a_n3202_n3288# sky130_fd_pr__nfet_01v8 ad=1.98 pd=12.33 as=4.68 ps=24.78 w=12 l=0.8
X17 source.t19 minus.t7 drain_right.t12 a_n3202_n3288# sky130_fd_pr__nfet_01v8 ad=1.98 pd=12.33 as=1.98 ps=12.33 w=12 l=0.8
X18 drain_right.t11 minus.t8 source.t32 a_n3202_n3288# sky130_fd_pr__nfet_01v8 ad=1.98 pd=12.33 as=1.98 ps=12.33 w=12 l=0.8
X19 drain_right.t10 minus.t9 source.t30 a_n3202_n3288# sky130_fd_pr__nfet_01v8 ad=1.98 pd=12.33 as=4.68 ps=24.78 w=12 l=0.8
X20 source.t8 plus.t6 drain_left.t13 a_n3202_n3288# sky130_fd_pr__nfet_01v8 ad=1.98 pd=12.33 as=1.98 ps=12.33 w=12 l=0.8
X21 source.t36 minus.t10 drain_right.t9 a_n3202_n3288# sky130_fd_pr__nfet_01v8 ad=1.98 pd=12.33 as=1.98 ps=12.33 w=12 l=0.8
X22 drain_left.t12 plus.t7 source.t0 a_n3202_n3288# sky130_fd_pr__nfet_01v8 ad=1.98 pd=12.33 as=1.98 ps=12.33 w=12 l=0.8
X23 drain_left.t11 plus.t8 source.t11 a_n3202_n3288# sky130_fd_pr__nfet_01v8 ad=1.98 pd=12.33 as=1.98 ps=12.33 w=12 l=0.8
X24 source.t35 minus.t11 drain_right.t8 a_n3202_n3288# sky130_fd_pr__nfet_01v8 ad=1.98 pd=12.33 as=1.98 ps=12.33 w=12 l=0.8
X25 drain_right.t7 minus.t12 source.t24 a_n3202_n3288# sky130_fd_pr__nfet_01v8 ad=1.98 pd=12.33 as=1.98 ps=12.33 w=12 l=0.8
X26 drain_left.t10 plus.t9 source.t18 a_n3202_n3288# sky130_fd_pr__nfet_01v8 ad=1.98 pd=12.33 as=1.98 ps=12.33 w=12 l=0.8
X27 drain_right.t6 minus.t13 source.t27 a_n3202_n3288# sky130_fd_pr__nfet_01v8 ad=1.98 pd=12.33 as=1.98 ps=12.33 w=12 l=0.8
X28 source.t21 minus.t14 drain_right.t5 a_n3202_n3288# sky130_fd_pr__nfet_01v8 ad=1.98 pd=12.33 as=1.98 ps=12.33 w=12 l=0.8
X29 source.t10 plus.t10 drain_left.t9 a_n3202_n3288# sky130_fd_pr__nfet_01v8 ad=1.98 pd=12.33 as=1.98 ps=12.33 w=12 l=0.8
X30 source.t20 minus.t15 drain_right.t4 a_n3202_n3288# sky130_fd_pr__nfet_01v8 ad=1.98 pd=12.33 as=1.98 ps=12.33 w=12 l=0.8
X31 source.t33 minus.t16 drain_right.t3 a_n3202_n3288# sky130_fd_pr__nfet_01v8 ad=1.98 pd=12.33 as=1.98 ps=12.33 w=12 l=0.8
X32 drain_left.t8 plus.t11 source.t14 a_n3202_n3288# sky130_fd_pr__nfet_01v8 ad=1.98 pd=12.33 as=1.98 ps=12.33 w=12 l=0.8
X33 drain_left.t7 plus.t12 source.t3 a_n3202_n3288# sky130_fd_pr__nfet_01v8 ad=1.98 pd=12.33 as=1.98 ps=12.33 w=12 l=0.8
X34 source.t31 minus.t17 drain_right.t2 a_n3202_n3288# sky130_fd_pr__nfet_01v8 ad=1.98 pd=12.33 as=1.98 ps=12.33 w=12 l=0.8
X35 source.t16 plus.t13 drain_left.t6 a_n3202_n3288# sky130_fd_pr__nfet_01v8 ad=1.98 pd=12.33 as=1.98 ps=12.33 w=12 l=0.8
X36 source.t13 plus.t14 drain_left.t5 a_n3202_n3288# sky130_fd_pr__nfet_01v8 ad=4.68 pd=24.78 as=1.98 ps=12.33 w=12 l=0.8
X37 drain_left.t4 plus.t15 source.t39 a_n3202_n3288# sky130_fd_pr__nfet_01v8 ad=1.98 pd=12.33 as=4.68 ps=24.78 w=12 l=0.8
X38 source.t4 plus.t16 drain_left.t3 a_n3202_n3288# sky130_fd_pr__nfet_01v8 ad=1.98 pd=12.33 as=1.98 ps=12.33 w=12 l=0.8
X39 drain_left.t2 plus.t17 source.t2 a_n3202_n3288# sky130_fd_pr__nfet_01v8 ad=1.98 pd=12.33 as=1.98 ps=12.33 w=12 l=0.8
X40 source.t37 minus.t18 drain_right.t1 a_n3202_n3288# sky130_fd_pr__nfet_01v8 ad=1.98 pd=12.33 as=1.98 ps=12.33 w=12 l=0.8
X41 source.t12 plus.t18 drain_left.t1 a_n3202_n3288# sky130_fd_pr__nfet_01v8 ad=4.68 pd=24.78 as=1.98 ps=12.33 w=12 l=0.8
X42 source.t28 minus.t19 drain_right.t0 a_n3202_n3288# sky130_fd_pr__nfet_01v8 ad=4.68 pd=24.78 as=1.98 ps=12.33 w=12 l=0.8
X43 source.t5 plus.t19 drain_left.t0 a_n3202_n3288# sky130_fd_pr__nfet_01v8 ad=1.98 pd=12.33 as=1.98 ps=12.33 w=12 l=0.8
R0 minus.n7 minus.t9 432.394
R1 minus.n37 minus.t19 432.394
R2 minus.n8 minus.t7 410.604
R3 minus.n10 minus.t6 410.604
R4 minus.n5 minus.t11 410.604
R5 minus.n15 minus.t13 410.604
R6 minus.n3 minus.t10 410.604
R7 minus.n21 minus.t8 410.604
R8 minus.n22 minus.t17 410.604
R9 minus.n26 minus.t12 410.604
R10 minus.n28 minus.t4 410.604
R11 minus.n38 minus.t5 410.604
R12 minus.n40 minus.t16 410.604
R13 minus.n35 minus.t3 410.604
R14 minus.n45 minus.t18 410.604
R15 minus.n33 minus.t2 410.604
R16 minus.n51 minus.t14 410.604
R17 minus.n52 minus.t0 410.604
R18 minus.n56 minus.t15 410.604
R19 minus.n58 minus.t1 410.604
R20 minus.n29 minus.n28 161.3
R21 minus.n27 minus.n0 161.3
R22 minus.n26 minus.n25 161.3
R23 minus.n24 minus.n1 161.3
R24 minus.n20 minus.n19 161.3
R25 minus.n18 minus.n3 161.3
R26 minus.n17 minus.n16 161.3
R27 minus.n15 minus.n4 161.3
R28 minus.n14 minus.n13 161.3
R29 minus.n9 minus.n6 161.3
R30 minus.n59 minus.n58 161.3
R31 minus.n57 minus.n30 161.3
R32 minus.n56 minus.n55 161.3
R33 minus.n54 minus.n31 161.3
R34 minus.n50 minus.n49 161.3
R35 minus.n48 minus.n33 161.3
R36 minus.n47 minus.n46 161.3
R37 minus.n45 minus.n34 161.3
R38 minus.n44 minus.n43 161.3
R39 minus.n39 minus.n36 161.3
R40 minus.n23 minus.n22 80.6037
R41 minus.n21 minus.n2 80.6037
R42 minus.n12 minus.n5 80.6037
R43 minus.n11 minus.n10 80.6037
R44 minus.n53 minus.n52 80.6037
R45 minus.n51 minus.n32 80.6037
R46 minus.n42 minus.n35 80.6037
R47 minus.n41 minus.n40 80.6037
R48 minus.n10 minus.n5 48.2005
R49 minus.n22 minus.n21 48.2005
R50 minus.n40 minus.n35 48.2005
R51 minus.n52 minus.n51 48.2005
R52 minus.n7 minus.n6 44.8565
R53 minus.n37 minus.n36 44.8565
R54 minus.n14 minus.n5 43.0884
R55 minus.n21 minus.n20 43.0884
R56 minus.n44 minus.n35 43.0884
R57 minus.n51 minus.n50 43.0884
R58 minus.n60 minus.n29 41.455
R59 minus.n10 minus.n9 40.1672
R60 minus.n22 minus.n1 40.1672
R61 minus.n40 minus.n39 40.1672
R62 minus.n52 minus.n31 40.1672
R63 minus.n28 minus.n27 27.0217
R64 minus.n58 minus.n57 27.0217
R65 minus.n16 minus.n3 24.1005
R66 minus.n16 minus.n15 24.1005
R67 minus.n46 minus.n45 24.1005
R68 minus.n46 minus.n33 24.1005
R69 minus.n27 minus.n26 21.1793
R70 minus.n57 minus.n56 21.1793
R71 minus.n8 minus.n7 20.1275
R72 minus.n38 minus.n37 20.1275
R73 minus.n9 minus.n8 8.03383
R74 minus.n26 minus.n1 8.03383
R75 minus.n39 minus.n38 8.03383
R76 minus.n56 minus.n31 8.03383
R77 minus.n60 minus.n59 6.70505
R78 minus.n15 minus.n14 5.11262
R79 minus.n20 minus.n3 5.11262
R80 minus.n45 minus.n44 5.11262
R81 minus.n50 minus.n33 5.11262
R82 minus.n23 minus.n2 0.380177
R83 minus.n12 minus.n11 0.380177
R84 minus.n42 minus.n41 0.380177
R85 minus.n53 minus.n32 0.380177
R86 minus.n24 minus.n23 0.285035
R87 minus.n19 minus.n2 0.285035
R88 minus.n13 minus.n12 0.285035
R89 minus.n11 minus.n6 0.285035
R90 minus.n41 minus.n36 0.285035
R91 minus.n43 minus.n42 0.285035
R92 minus.n49 minus.n32 0.285035
R93 minus.n54 minus.n53 0.285035
R94 minus.n29 minus.n0 0.189894
R95 minus.n25 minus.n0 0.189894
R96 minus.n25 minus.n24 0.189894
R97 minus.n19 minus.n18 0.189894
R98 minus.n18 minus.n17 0.189894
R99 minus.n17 minus.n4 0.189894
R100 minus.n13 minus.n4 0.189894
R101 minus.n43 minus.n34 0.189894
R102 minus.n47 minus.n34 0.189894
R103 minus.n48 minus.n47 0.189894
R104 minus.n49 minus.n48 0.189894
R105 minus.n55 minus.n54 0.189894
R106 minus.n55 minus.n30 0.189894
R107 minus.n59 minus.n30 0.189894
R108 minus minus.n60 0.188
R109 source.n554 source.n494 289.615
R110 source.n480 source.n420 289.615
R111 source.n414 source.n354 289.615
R112 source.n340 source.n280 289.615
R113 source.n60 source.n0 289.615
R114 source.n134 source.n74 289.615
R115 source.n200 source.n140 289.615
R116 source.n274 source.n214 289.615
R117 source.n514 source.n513 185
R118 source.n519 source.n518 185
R119 source.n521 source.n520 185
R120 source.n510 source.n509 185
R121 source.n527 source.n526 185
R122 source.n529 source.n528 185
R123 source.n506 source.n505 185
R124 source.n536 source.n535 185
R125 source.n537 source.n504 185
R126 source.n539 source.n538 185
R127 source.n502 source.n501 185
R128 source.n545 source.n544 185
R129 source.n547 source.n546 185
R130 source.n498 source.n497 185
R131 source.n553 source.n552 185
R132 source.n555 source.n554 185
R133 source.n440 source.n439 185
R134 source.n445 source.n444 185
R135 source.n447 source.n446 185
R136 source.n436 source.n435 185
R137 source.n453 source.n452 185
R138 source.n455 source.n454 185
R139 source.n432 source.n431 185
R140 source.n462 source.n461 185
R141 source.n463 source.n430 185
R142 source.n465 source.n464 185
R143 source.n428 source.n427 185
R144 source.n471 source.n470 185
R145 source.n473 source.n472 185
R146 source.n424 source.n423 185
R147 source.n479 source.n478 185
R148 source.n481 source.n480 185
R149 source.n374 source.n373 185
R150 source.n379 source.n378 185
R151 source.n381 source.n380 185
R152 source.n370 source.n369 185
R153 source.n387 source.n386 185
R154 source.n389 source.n388 185
R155 source.n366 source.n365 185
R156 source.n396 source.n395 185
R157 source.n397 source.n364 185
R158 source.n399 source.n398 185
R159 source.n362 source.n361 185
R160 source.n405 source.n404 185
R161 source.n407 source.n406 185
R162 source.n358 source.n357 185
R163 source.n413 source.n412 185
R164 source.n415 source.n414 185
R165 source.n300 source.n299 185
R166 source.n305 source.n304 185
R167 source.n307 source.n306 185
R168 source.n296 source.n295 185
R169 source.n313 source.n312 185
R170 source.n315 source.n314 185
R171 source.n292 source.n291 185
R172 source.n322 source.n321 185
R173 source.n323 source.n290 185
R174 source.n325 source.n324 185
R175 source.n288 source.n287 185
R176 source.n331 source.n330 185
R177 source.n333 source.n332 185
R178 source.n284 source.n283 185
R179 source.n339 source.n338 185
R180 source.n341 source.n340 185
R181 source.n61 source.n60 185
R182 source.n59 source.n58 185
R183 source.n4 source.n3 185
R184 source.n53 source.n52 185
R185 source.n51 source.n50 185
R186 source.n8 source.n7 185
R187 source.n45 source.n44 185
R188 source.n43 source.n10 185
R189 source.n42 source.n41 185
R190 source.n13 source.n11 185
R191 source.n36 source.n35 185
R192 source.n34 source.n33 185
R193 source.n17 source.n16 185
R194 source.n28 source.n27 185
R195 source.n26 source.n25 185
R196 source.n21 source.n20 185
R197 source.n135 source.n134 185
R198 source.n133 source.n132 185
R199 source.n78 source.n77 185
R200 source.n127 source.n126 185
R201 source.n125 source.n124 185
R202 source.n82 source.n81 185
R203 source.n119 source.n118 185
R204 source.n117 source.n84 185
R205 source.n116 source.n115 185
R206 source.n87 source.n85 185
R207 source.n110 source.n109 185
R208 source.n108 source.n107 185
R209 source.n91 source.n90 185
R210 source.n102 source.n101 185
R211 source.n100 source.n99 185
R212 source.n95 source.n94 185
R213 source.n201 source.n200 185
R214 source.n199 source.n198 185
R215 source.n144 source.n143 185
R216 source.n193 source.n192 185
R217 source.n191 source.n190 185
R218 source.n148 source.n147 185
R219 source.n185 source.n184 185
R220 source.n183 source.n150 185
R221 source.n182 source.n181 185
R222 source.n153 source.n151 185
R223 source.n176 source.n175 185
R224 source.n174 source.n173 185
R225 source.n157 source.n156 185
R226 source.n168 source.n167 185
R227 source.n166 source.n165 185
R228 source.n161 source.n160 185
R229 source.n275 source.n274 185
R230 source.n273 source.n272 185
R231 source.n218 source.n217 185
R232 source.n267 source.n266 185
R233 source.n265 source.n264 185
R234 source.n222 source.n221 185
R235 source.n259 source.n258 185
R236 source.n257 source.n224 185
R237 source.n256 source.n255 185
R238 source.n227 source.n225 185
R239 source.n250 source.n249 185
R240 source.n248 source.n247 185
R241 source.n231 source.n230 185
R242 source.n242 source.n241 185
R243 source.n240 source.n239 185
R244 source.n235 source.n234 185
R245 source.n515 source.t22 149.524
R246 source.n441 source.t28 149.524
R247 source.n375 source.t39 149.524
R248 source.n301 source.t13 149.524
R249 source.n22 source.t17 149.524
R250 source.n96 source.t12 149.524
R251 source.n162 source.t30 149.524
R252 source.n236 source.t34 149.524
R253 source.n519 source.n513 104.615
R254 source.n520 source.n519 104.615
R255 source.n520 source.n509 104.615
R256 source.n527 source.n509 104.615
R257 source.n528 source.n527 104.615
R258 source.n528 source.n505 104.615
R259 source.n536 source.n505 104.615
R260 source.n537 source.n536 104.615
R261 source.n538 source.n537 104.615
R262 source.n538 source.n501 104.615
R263 source.n545 source.n501 104.615
R264 source.n546 source.n545 104.615
R265 source.n546 source.n497 104.615
R266 source.n553 source.n497 104.615
R267 source.n554 source.n553 104.615
R268 source.n445 source.n439 104.615
R269 source.n446 source.n445 104.615
R270 source.n446 source.n435 104.615
R271 source.n453 source.n435 104.615
R272 source.n454 source.n453 104.615
R273 source.n454 source.n431 104.615
R274 source.n462 source.n431 104.615
R275 source.n463 source.n462 104.615
R276 source.n464 source.n463 104.615
R277 source.n464 source.n427 104.615
R278 source.n471 source.n427 104.615
R279 source.n472 source.n471 104.615
R280 source.n472 source.n423 104.615
R281 source.n479 source.n423 104.615
R282 source.n480 source.n479 104.615
R283 source.n379 source.n373 104.615
R284 source.n380 source.n379 104.615
R285 source.n380 source.n369 104.615
R286 source.n387 source.n369 104.615
R287 source.n388 source.n387 104.615
R288 source.n388 source.n365 104.615
R289 source.n396 source.n365 104.615
R290 source.n397 source.n396 104.615
R291 source.n398 source.n397 104.615
R292 source.n398 source.n361 104.615
R293 source.n405 source.n361 104.615
R294 source.n406 source.n405 104.615
R295 source.n406 source.n357 104.615
R296 source.n413 source.n357 104.615
R297 source.n414 source.n413 104.615
R298 source.n305 source.n299 104.615
R299 source.n306 source.n305 104.615
R300 source.n306 source.n295 104.615
R301 source.n313 source.n295 104.615
R302 source.n314 source.n313 104.615
R303 source.n314 source.n291 104.615
R304 source.n322 source.n291 104.615
R305 source.n323 source.n322 104.615
R306 source.n324 source.n323 104.615
R307 source.n324 source.n287 104.615
R308 source.n331 source.n287 104.615
R309 source.n332 source.n331 104.615
R310 source.n332 source.n283 104.615
R311 source.n339 source.n283 104.615
R312 source.n340 source.n339 104.615
R313 source.n60 source.n59 104.615
R314 source.n59 source.n3 104.615
R315 source.n52 source.n3 104.615
R316 source.n52 source.n51 104.615
R317 source.n51 source.n7 104.615
R318 source.n44 source.n7 104.615
R319 source.n44 source.n43 104.615
R320 source.n43 source.n42 104.615
R321 source.n42 source.n11 104.615
R322 source.n35 source.n11 104.615
R323 source.n35 source.n34 104.615
R324 source.n34 source.n16 104.615
R325 source.n27 source.n16 104.615
R326 source.n27 source.n26 104.615
R327 source.n26 source.n20 104.615
R328 source.n134 source.n133 104.615
R329 source.n133 source.n77 104.615
R330 source.n126 source.n77 104.615
R331 source.n126 source.n125 104.615
R332 source.n125 source.n81 104.615
R333 source.n118 source.n81 104.615
R334 source.n118 source.n117 104.615
R335 source.n117 source.n116 104.615
R336 source.n116 source.n85 104.615
R337 source.n109 source.n85 104.615
R338 source.n109 source.n108 104.615
R339 source.n108 source.n90 104.615
R340 source.n101 source.n90 104.615
R341 source.n101 source.n100 104.615
R342 source.n100 source.n94 104.615
R343 source.n200 source.n199 104.615
R344 source.n199 source.n143 104.615
R345 source.n192 source.n143 104.615
R346 source.n192 source.n191 104.615
R347 source.n191 source.n147 104.615
R348 source.n184 source.n147 104.615
R349 source.n184 source.n183 104.615
R350 source.n183 source.n182 104.615
R351 source.n182 source.n151 104.615
R352 source.n175 source.n151 104.615
R353 source.n175 source.n174 104.615
R354 source.n174 source.n156 104.615
R355 source.n167 source.n156 104.615
R356 source.n167 source.n166 104.615
R357 source.n166 source.n160 104.615
R358 source.n274 source.n273 104.615
R359 source.n273 source.n217 104.615
R360 source.n266 source.n217 104.615
R361 source.n266 source.n265 104.615
R362 source.n265 source.n221 104.615
R363 source.n258 source.n221 104.615
R364 source.n258 source.n257 104.615
R365 source.n257 source.n256 104.615
R366 source.n256 source.n225 104.615
R367 source.n249 source.n225 104.615
R368 source.n249 source.n248 104.615
R369 source.n248 source.n230 104.615
R370 source.n241 source.n230 104.615
R371 source.n241 source.n240 104.615
R372 source.n240 source.n234 104.615
R373 source.t22 source.n513 52.3082
R374 source.t28 source.n439 52.3082
R375 source.t39 source.n373 52.3082
R376 source.t13 source.n299 52.3082
R377 source.t17 source.n20 52.3082
R378 source.t12 source.n94 52.3082
R379 source.t30 source.n160 52.3082
R380 source.t34 source.n234 52.3082
R381 source.n67 source.n66 42.8739
R382 source.n69 source.n68 42.8739
R383 source.n71 source.n70 42.8739
R384 source.n73 source.n72 42.8739
R385 source.n207 source.n206 42.8739
R386 source.n209 source.n208 42.8739
R387 source.n211 source.n210 42.8739
R388 source.n213 source.n212 42.8739
R389 source.n493 source.n492 42.8737
R390 source.n491 source.n490 42.8737
R391 source.n489 source.n488 42.8737
R392 source.n487 source.n486 42.8737
R393 source.n353 source.n352 42.8737
R394 source.n351 source.n350 42.8737
R395 source.n349 source.n348 42.8737
R396 source.n347 source.n346 42.8737
R397 source.n559 source.n558 29.8581
R398 source.n485 source.n484 29.8581
R399 source.n419 source.n418 29.8581
R400 source.n345 source.n344 29.8581
R401 source.n65 source.n64 29.8581
R402 source.n139 source.n138 29.8581
R403 source.n205 source.n204 29.8581
R404 source.n279 source.n278 29.8581
R405 source.n345 source.n279 22.2619
R406 source.n560 source.n65 16.5119
R407 source.n539 source.n504 13.1884
R408 source.n465 source.n430 13.1884
R409 source.n399 source.n364 13.1884
R410 source.n325 source.n290 13.1884
R411 source.n45 source.n10 13.1884
R412 source.n119 source.n84 13.1884
R413 source.n185 source.n150 13.1884
R414 source.n259 source.n224 13.1884
R415 source.n535 source.n534 12.8005
R416 source.n540 source.n502 12.8005
R417 source.n461 source.n460 12.8005
R418 source.n466 source.n428 12.8005
R419 source.n395 source.n394 12.8005
R420 source.n400 source.n362 12.8005
R421 source.n321 source.n320 12.8005
R422 source.n326 source.n288 12.8005
R423 source.n46 source.n8 12.8005
R424 source.n41 source.n12 12.8005
R425 source.n120 source.n82 12.8005
R426 source.n115 source.n86 12.8005
R427 source.n186 source.n148 12.8005
R428 source.n181 source.n152 12.8005
R429 source.n260 source.n222 12.8005
R430 source.n255 source.n226 12.8005
R431 source.n533 source.n506 12.0247
R432 source.n544 source.n543 12.0247
R433 source.n459 source.n432 12.0247
R434 source.n470 source.n469 12.0247
R435 source.n393 source.n366 12.0247
R436 source.n404 source.n403 12.0247
R437 source.n319 source.n292 12.0247
R438 source.n330 source.n329 12.0247
R439 source.n50 source.n49 12.0247
R440 source.n40 source.n13 12.0247
R441 source.n124 source.n123 12.0247
R442 source.n114 source.n87 12.0247
R443 source.n190 source.n189 12.0247
R444 source.n180 source.n153 12.0247
R445 source.n264 source.n263 12.0247
R446 source.n254 source.n227 12.0247
R447 source.n530 source.n529 11.249
R448 source.n547 source.n500 11.249
R449 source.n456 source.n455 11.249
R450 source.n473 source.n426 11.249
R451 source.n390 source.n389 11.249
R452 source.n407 source.n360 11.249
R453 source.n316 source.n315 11.249
R454 source.n333 source.n286 11.249
R455 source.n53 source.n6 11.249
R456 source.n37 source.n36 11.249
R457 source.n127 source.n80 11.249
R458 source.n111 source.n110 11.249
R459 source.n193 source.n146 11.249
R460 source.n177 source.n176 11.249
R461 source.n267 source.n220 11.249
R462 source.n251 source.n250 11.249
R463 source.n526 source.n508 10.4732
R464 source.n548 source.n498 10.4732
R465 source.n452 source.n434 10.4732
R466 source.n474 source.n424 10.4732
R467 source.n386 source.n368 10.4732
R468 source.n408 source.n358 10.4732
R469 source.n312 source.n294 10.4732
R470 source.n334 source.n284 10.4732
R471 source.n54 source.n4 10.4732
R472 source.n33 source.n15 10.4732
R473 source.n128 source.n78 10.4732
R474 source.n107 source.n89 10.4732
R475 source.n194 source.n144 10.4732
R476 source.n173 source.n155 10.4732
R477 source.n268 source.n218 10.4732
R478 source.n247 source.n229 10.4732
R479 source.n515 source.n514 10.2747
R480 source.n441 source.n440 10.2747
R481 source.n375 source.n374 10.2747
R482 source.n301 source.n300 10.2747
R483 source.n22 source.n21 10.2747
R484 source.n96 source.n95 10.2747
R485 source.n162 source.n161 10.2747
R486 source.n236 source.n235 10.2747
R487 source.n525 source.n510 9.69747
R488 source.n552 source.n551 9.69747
R489 source.n451 source.n436 9.69747
R490 source.n478 source.n477 9.69747
R491 source.n385 source.n370 9.69747
R492 source.n412 source.n411 9.69747
R493 source.n311 source.n296 9.69747
R494 source.n338 source.n337 9.69747
R495 source.n58 source.n57 9.69747
R496 source.n32 source.n17 9.69747
R497 source.n132 source.n131 9.69747
R498 source.n106 source.n91 9.69747
R499 source.n198 source.n197 9.69747
R500 source.n172 source.n157 9.69747
R501 source.n272 source.n271 9.69747
R502 source.n246 source.n231 9.69747
R503 source.n558 source.n557 9.45567
R504 source.n484 source.n483 9.45567
R505 source.n418 source.n417 9.45567
R506 source.n344 source.n343 9.45567
R507 source.n64 source.n63 9.45567
R508 source.n138 source.n137 9.45567
R509 source.n204 source.n203 9.45567
R510 source.n278 source.n277 9.45567
R511 source.n557 source.n556 9.3005
R512 source.n496 source.n495 9.3005
R513 source.n551 source.n550 9.3005
R514 source.n549 source.n548 9.3005
R515 source.n500 source.n499 9.3005
R516 source.n543 source.n542 9.3005
R517 source.n541 source.n540 9.3005
R518 source.n517 source.n516 9.3005
R519 source.n512 source.n511 9.3005
R520 source.n523 source.n522 9.3005
R521 source.n525 source.n524 9.3005
R522 source.n508 source.n507 9.3005
R523 source.n531 source.n530 9.3005
R524 source.n533 source.n532 9.3005
R525 source.n534 source.n503 9.3005
R526 source.n483 source.n482 9.3005
R527 source.n422 source.n421 9.3005
R528 source.n477 source.n476 9.3005
R529 source.n475 source.n474 9.3005
R530 source.n426 source.n425 9.3005
R531 source.n469 source.n468 9.3005
R532 source.n467 source.n466 9.3005
R533 source.n443 source.n442 9.3005
R534 source.n438 source.n437 9.3005
R535 source.n449 source.n448 9.3005
R536 source.n451 source.n450 9.3005
R537 source.n434 source.n433 9.3005
R538 source.n457 source.n456 9.3005
R539 source.n459 source.n458 9.3005
R540 source.n460 source.n429 9.3005
R541 source.n417 source.n416 9.3005
R542 source.n356 source.n355 9.3005
R543 source.n411 source.n410 9.3005
R544 source.n409 source.n408 9.3005
R545 source.n360 source.n359 9.3005
R546 source.n403 source.n402 9.3005
R547 source.n401 source.n400 9.3005
R548 source.n377 source.n376 9.3005
R549 source.n372 source.n371 9.3005
R550 source.n383 source.n382 9.3005
R551 source.n385 source.n384 9.3005
R552 source.n368 source.n367 9.3005
R553 source.n391 source.n390 9.3005
R554 source.n393 source.n392 9.3005
R555 source.n394 source.n363 9.3005
R556 source.n343 source.n342 9.3005
R557 source.n282 source.n281 9.3005
R558 source.n337 source.n336 9.3005
R559 source.n335 source.n334 9.3005
R560 source.n286 source.n285 9.3005
R561 source.n329 source.n328 9.3005
R562 source.n327 source.n326 9.3005
R563 source.n303 source.n302 9.3005
R564 source.n298 source.n297 9.3005
R565 source.n309 source.n308 9.3005
R566 source.n311 source.n310 9.3005
R567 source.n294 source.n293 9.3005
R568 source.n317 source.n316 9.3005
R569 source.n319 source.n318 9.3005
R570 source.n320 source.n289 9.3005
R571 source.n24 source.n23 9.3005
R572 source.n19 source.n18 9.3005
R573 source.n30 source.n29 9.3005
R574 source.n32 source.n31 9.3005
R575 source.n15 source.n14 9.3005
R576 source.n38 source.n37 9.3005
R577 source.n40 source.n39 9.3005
R578 source.n12 source.n9 9.3005
R579 source.n63 source.n62 9.3005
R580 source.n2 source.n1 9.3005
R581 source.n57 source.n56 9.3005
R582 source.n55 source.n54 9.3005
R583 source.n6 source.n5 9.3005
R584 source.n49 source.n48 9.3005
R585 source.n47 source.n46 9.3005
R586 source.n98 source.n97 9.3005
R587 source.n93 source.n92 9.3005
R588 source.n104 source.n103 9.3005
R589 source.n106 source.n105 9.3005
R590 source.n89 source.n88 9.3005
R591 source.n112 source.n111 9.3005
R592 source.n114 source.n113 9.3005
R593 source.n86 source.n83 9.3005
R594 source.n137 source.n136 9.3005
R595 source.n76 source.n75 9.3005
R596 source.n131 source.n130 9.3005
R597 source.n129 source.n128 9.3005
R598 source.n80 source.n79 9.3005
R599 source.n123 source.n122 9.3005
R600 source.n121 source.n120 9.3005
R601 source.n164 source.n163 9.3005
R602 source.n159 source.n158 9.3005
R603 source.n170 source.n169 9.3005
R604 source.n172 source.n171 9.3005
R605 source.n155 source.n154 9.3005
R606 source.n178 source.n177 9.3005
R607 source.n180 source.n179 9.3005
R608 source.n152 source.n149 9.3005
R609 source.n203 source.n202 9.3005
R610 source.n142 source.n141 9.3005
R611 source.n197 source.n196 9.3005
R612 source.n195 source.n194 9.3005
R613 source.n146 source.n145 9.3005
R614 source.n189 source.n188 9.3005
R615 source.n187 source.n186 9.3005
R616 source.n238 source.n237 9.3005
R617 source.n233 source.n232 9.3005
R618 source.n244 source.n243 9.3005
R619 source.n246 source.n245 9.3005
R620 source.n229 source.n228 9.3005
R621 source.n252 source.n251 9.3005
R622 source.n254 source.n253 9.3005
R623 source.n226 source.n223 9.3005
R624 source.n277 source.n276 9.3005
R625 source.n216 source.n215 9.3005
R626 source.n271 source.n270 9.3005
R627 source.n269 source.n268 9.3005
R628 source.n220 source.n219 9.3005
R629 source.n263 source.n262 9.3005
R630 source.n261 source.n260 9.3005
R631 source.n522 source.n521 8.92171
R632 source.n555 source.n496 8.92171
R633 source.n448 source.n447 8.92171
R634 source.n481 source.n422 8.92171
R635 source.n382 source.n381 8.92171
R636 source.n415 source.n356 8.92171
R637 source.n308 source.n307 8.92171
R638 source.n341 source.n282 8.92171
R639 source.n61 source.n2 8.92171
R640 source.n29 source.n28 8.92171
R641 source.n135 source.n76 8.92171
R642 source.n103 source.n102 8.92171
R643 source.n201 source.n142 8.92171
R644 source.n169 source.n168 8.92171
R645 source.n275 source.n216 8.92171
R646 source.n243 source.n242 8.92171
R647 source.n518 source.n512 8.14595
R648 source.n556 source.n494 8.14595
R649 source.n444 source.n438 8.14595
R650 source.n482 source.n420 8.14595
R651 source.n378 source.n372 8.14595
R652 source.n416 source.n354 8.14595
R653 source.n304 source.n298 8.14595
R654 source.n342 source.n280 8.14595
R655 source.n62 source.n0 8.14595
R656 source.n25 source.n19 8.14595
R657 source.n136 source.n74 8.14595
R658 source.n99 source.n93 8.14595
R659 source.n202 source.n140 8.14595
R660 source.n165 source.n159 8.14595
R661 source.n276 source.n214 8.14595
R662 source.n239 source.n233 8.14595
R663 source.n517 source.n514 7.3702
R664 source.n443 source.n440 7.3702
R665 source.n377 source.n374 7.3702
R666 source.n303 source.n300 7.3702
R667 source.n24 source.n21 7.3702
R668 source.n98 source.n95 7.3702
R669 source.n164 source.n161 7.3702
R670 source.n238 source.n235 7.3702
R671 source.n518 source.n517 5.81868
R672 source.n558 source.n494 5.81868
R673 source.n444 source.n443 5.81868
R674 source.n484 source.n420 5.81868
R675 source.n378 source.n377 5.81868
R676 source.n418 source.n354 5.81868
R677 source.n304 source.n303 5.81868
R678 source.n344 source.n280 5.81868
R679 source.n64 source.n0 5.81868
R680 source.n25 source.n24 5.81868
R681 source.n138 source.n74 5.81868
R682 source.n99 source.n98 5.81868
R683 source.n204 source.n140 5.81868
R684 source.n165 source.n164 5.81868
R685 source.n278 source.n214 5.81868
R686 source.n239 source.n238 5.81868
R687 source.n560 source.n559 5.7505
R688 source.n521 source.n512 5.04292
R689 source.n556 source.n555 5.04292
R690 source.n447 source.n438 5.04292
R691 source.n482 source.n481 5.04292
R692 source.n381 source.n372 5.04292
R693 source.n416 source.n415 5.04292
R694 source.n307 source.n298 5.04292
R695 source.n342 source.n341 5.04292
R696 source.n62 source.n61 5.04292
R697 source.n28 source.n19 5.04292
R698 source.n136 source.n135 5.04292
R699 source.n102 source.n93 5.04292
R700 source.n202 source.n201 5.04292