* NGSPICE file created from diffpair437.ext - technology: sky130A

.subckt diffpair437 minus drain_right drain_left source plus
X0 source.t31 minus.t0 drain_right.t13 a_n1850_n3288# sky130_fd_pr__nfet_01v8 ad=1.98 pd=12.33 as=1.98 ps=12.33 w=12 l=0.3
X1 source.t30 minus.t1 drain_right.t11 a_n1850_n3288# sky130_fd_pr__nfet_01v8 ad=4.68 pd=24.78 as=1.98 ps=12.33 w=12 l=0.3
X2 drain_left.t15 plus.t0 source.t1 a_n1850_n3288# sky130_fd_pr__nfet_01v8 ad=1.98 pd=12.33 as=4.68 ps=24.78 w=12 l=0.3
X3 source.t29 minus.t2 drain_right.t3 a_n1850_n3288# sky130_fd_pr__nfet_01v8 ad=1.98 pd=12.33 as=1.98 ps=12.33 w=12 l=0.3
X4 drain_right.t10 minus.t3 source.t28 a_n1850_n3288# sky130_fd_pr__nfet_01v8 ad=1.98 pd=12.33 as=1.98 ps=12.33 w=12 l=0.3
X5 a_n1850_n3288# a_n1850_n3288# a_n1850_n3288# a_n1850_n3288# sky130_fd_pr__nfet_01v8 ad=4.68 pd=24.78 as=37.44 ps=198.24 w=12 l=0.3
X6 drain_left.t14 plus.t1 source.t3 a_n1850_n3288# sky130_fd_pr__nfet_01v8 ad=1.98 pd=12.33 as=1.98 ps=12.33 w=12 l=0.3
X7 source.t6 plus.t2 drain_left.t13 a_n1850_n3288# sky130_fd_pr__nfet_01v8 ad=4.68 pd=24.78 as=1.98 ps=12.33 w=12 l=0.3
X8 drain_left.t12 plus.t3 source.t9 a_n1850_n3288# sky130_fd_pr__nfet_01v8 ad=1.98 pd=12.33 as=1.98 ps=12.33 w=12 l=0.3
X9 a_n1850_n3288# a_n1850_n3288# a_n1850_n3288# a_n1850_n3288# sky130_fd_pr__nfet_01v8 ad=4.68 pd=24.78 as=0 ps=0 w=12 l=0.3
X10 drain_right.t8 minus.t4 source.t27 a_n1850_n3288# sky130_fd_pr__nfet_01v8 ad=1.98 pd=12.33 as=1.98 ps=12.33 w=12 l=0.3
X11 source.t26 minus.t5 drain_right.t14 a_n1850_n3288# sky130_fd_pr__nfet_01v8 ad=1.98 pd=12.33 as=1.98 ps=12.33 w=12 l=0.3
X12 source.t25 minus.t6 drain_right.t15 a_n1850_n3288# sky130_fd_pr__nfet_01v8 ad=1.98 pd=12.33 as=1.98 ps=12.33 w=12 l=0.3
X13 source.t0 plus.t4 drain_left.t11 a_n1850_n3288# sky130_fd_pr__nfet_01v8 ad=1.98 pd=12.33 as=1.98 ps=12.33 w=12 l=0.3
X14 source.t10 plus.t5 drain_left.t10 a_n1850_n3288# sky130_fd_pr__nfet_01v8 ad=1.98 pd=12.33 as=1.98 ps=12.33 w=12 l=0.3
X15 drain_left.t9 plus.t6 source.t5 a_n1850_n3288# sky130_fd_pr__nfet_01v8 ad=1.98 pd=12.33 as=1.98 ps=12.33 w=12 l=0.3
X16 source.t24 minus.t7 drain_right.t9 a_n1850_n3288# sky130_fd_pr__nfet_01v8 ad=1.98 pd=12.33 as=1.98 ps=12.33 w=12 l=0.3
X17 source.t11 plus.t7 drain_left.t8 a_n1850_n3288# sky130_fd_pr__nfet_01v8 ad=1.98 pd=12.33 as=1.98 ps=12.33 w=12 l=0.3
X18 source.t14 plus.t8 drain_left.t7 a_n1850_n3288# sky130_fd_pr__nfet_01v8 ad=1.98 pd=12.33 as=1.98 ps=12.33 w=12 l=0.3
X19 drain_right.t12 minus.t8 source.t23 a_n1850_n3288# sky130_fd_pr__nfet_01v8 ad=1.98 pd=12.33 as=4.68 ps=24.78 w=12 l=0.3
X20 a_n1850_n3288# a_n1850_n3288# a_n1850_n3288# a_n1850_n3288# sky130_fd_pr__nfet_01v8 ad=4.68 pd=24.78 as=0 ps=0 w=12 l=0.3
X21 drain_left.t6 plus.t9 source.t2 a_n1850_n3288# sky130_fd_pr__nfet_01v8 ad=1.98 pd=12.33 as=1.98 ps=12.33 w=12 l=0.3
X22 a_n1850_n3288# a_n1850_n3288# a_n1850_n3288# a_n1850_n3288# sky130_fd_pr__nfet_01v8 ad=4.68 pd=24.78 as=0 ps=0 w=12 l=0.3
X23 drain_right.t4 minus.t9 source.t22 a_n1850_n3288# sky130_fd_pr__nfet_01v8 ad=1.98 pd=12.33 as=1.98 ps=12.33 w=12 l=0.3
X24 drain_right.t7 minus.t10 source.t21 a_n1850_n3288# sky130_fd_pr__nfet_01v8 ad=1.98 pd=12.33 as=1.98 ps=12.33 w=12 l=0.3
X25 source.t13 plus.t10 drain_left.t5 a_n1850_n3288# sky130_fd_pr__nfet_01v8 ad=1.98 pd=12.33 as=1.98 ps=12.33 w=12 l=0.3
X26 drain_right.t0 minus.t11 source.t20 a_n1850_n3288# sky130_fd_pr__nfet_01v8 ad=1.98 pd=12.33 as=4.68 ps=24.78 w=12 l=0.3
X27 source.t4 plus.t11 drain_left.t4 a_n1850_n3288# sky130_fd_pr__nfet_01v8 ad=4.68 pd=24.78 as=1.98 ps=12.33 w=12 l=0.3
X28 drain_right.t1 minus.t12 source.t19 a_n1850_n3288# sky130_fd_pr__nfet_01v8 ad=1.98 pd=12.33 as=1.98 ps=12.33 w=12 l=0.3
X29 drain_right.t5 minus.t13 source.t18 a_n1850_n3288# sky130_fd_pr__nfet_01v8 ad=1.98 pd=12.33 as=1.98 ps=12.33 w=12 l=0.3
X30 drain_left.t3 plus.t12 source.t7 a_n1850_n3288# sky130_fd_pr__nfet_01v8 ad=1.98 pd=12.33 as=4.68 ps=24.78 w=12 l=0.3
X31 drain_left.t2 plus.t13 source.t15 a_n1850_n3288# sky130_fd_pr__nfet_01v8 ad=1.98 pd=12.33 as=1.98 ps=12.33 w=12 l=0.3
X32 source.t17 minus.t14 drain_right.t2 a_n1850_n3288# sky130_fd_pr__nfet_01v8 ad=1.98 pd=12.33 as=1.98 ps=12.33 w=12 l=0.3
X33 source.t16 minus.t15 drain_right.t6 a_n1850_n3288# sky130_fd_pr__nfet_01v8 ad=4.68 pd=24.78 as=1.98 ps=12.33 w=12 l=0.3
X34 source.t8 plus.t14 drain_left.t1 a_n1850_n3288# sky130_fd_pr__nfet_01v8 ad=1.98 pd=12.33 as=1.98 ps=12.33 w=12 l=0.3
X35 drain_left.t0 plus.t15 source.t12 a_n1850_n3288# sky130_fd_pr__nfet_01v8 ad=1.98 pd=12.33 as=1.98 ps=12.33 w=12 l=0.3
R0 minus.n21 minus.t15 1098.38
R1 minus.n5 minus.t8 1098.38
R2 minus.n44 minus.t11 1098.38
R3 minus.n28 minus.t1 1098.38
R4 minus.n20 minus.t4 1068.43
R5 minus.n1 minus.t2 1068.43
R6 minus.n14 minus.t13 1068.43
R7 minus.n12 minus.t7 1068.43
R8 minus.n3 minus.t3 1068.43
R9 minus.n6 minus.t14 1068.43
R10 minus.n43 minus.t5 1068.43
R11 minus.n24 minus.t12 1068.43
R12 minus.n37 minus.t6 1068.43
R13 minus.n35 minus.t9 1068.43
R14 minus.n26 minus.t0 1068.43
R15 minus.n29 minus.t10 1068.43
R16 minus.n5 minus.n4 161.489
R17 minus.n28 minus.n27 161.489
R18 minus.n22 minus.n21 161.3
R19 minus.n19 minus.n0 161.3
R20 minus.n18 minus.n17 161.3
R21 minus.n16 minus.n15 161.3
R22 minus.n13 minus.n2 161.3
R23 minus.n11 minus.n10 161.3
R24 minus.n9 minus.n8 161.3
R25 minus.n7 minus.n4 161.3
R26 minus.n45 minus.n44 161.3
R27 minus.n42 minus.n23 161.3
R28 minus.n41 minus.n40 161.3
R29 minus.n39 minus.n38 161.3
R30 minus.n36 minus.n25 161.3
R31 minus.n34 minus.n33 161.3
R32 minus.n32 minus.n31 161.3
R33 minus.n30 minus.n27 161.3
R34 minus.n19 minus.n18 73.0308
R35 minus.n8 minus.n7 73.0308
R36 minus.n31 minus.n30 73.0308
R37 minus.n42 minus.n41 73.0308
R38 minus.n15 minus.n1 64.9975
R39 minus.n11 minus.n3 64.9975
R40 minus.n34 minus.n26 64.9975
R41 minus.n38 minus.n24 64.9975
R42 minus.n21 minus.n20 62.0763
R43 minus.n6 minus.n5 62.0763
R44 minus.n29 minus.n28 62.0763
R45 minus.n44 minus.n43 62.0763
R46 minus.n14 minus.n13 46.0096
R47 minus.n13 minus.n12 46.0096
R48 minus.n36 minus.n35 46.0096
R49 minus.n37 minus.n36 46.0096
R50 minus.n46 minus.n22 36.0952
R51 minus.n15 minus.n14 27.0217
R52 minus.n12 minus.n11 27.0217
R53 minus.n35 minus.n34 27.0217
R54 minus.n38 minus.n37 27.0217
R55 minus.n20 minus.n19 10.955
R56 minus.n7 minus.n6 10.955
R57 minus.n30 minus.n29 10.955
R58 minus.n43 minus.n42 10.955
R59 minus.n18 minus.n1 8.03383
R60 minus.n8 minus.n3 8.03383
R61 minus.n31 minus.n26 8.03383
R62 minus.n41 minus.n24 8.03383
R63 minus.n46 minus.n45 6.46641
R64 minus.n22 minus.n0 0.189894
R65 minus.n17 minus.n0 0.189894
R66 minus.n17 minus.n16 0.189894
R67 minus.n16 minus.n2 0.189894
R68 minus.n10 minus.n2 0.189894
R69 minus.n10 minus.n9 0.189894
R70 minus.n9 minus.n4 0.189894
R71 minus.n32 minus.n27 0.189894
R72 minus.n33 minus.n32 0.189894
R73 minus.n33 minus.n25 0.189894
R74 minus.n39 minus.n25 0.189894
R75 minus.n40 minus.n39 0.189894
R76 minus.n40 minus.n23 0.189894
R77 minus.n45 minus.n23 0.189894
R78 minus minus.n46 0.188
R79 drain_right.n5 drain_right.n3 60.0956
R80 drain_right.n2 drain_right.n0 60.0956
R81 drain_right.n9 drain_right.n7 60.0956
R82 drain_right.n9 drain_right.n8 59.5527
R83 drain_right.n11 drain_right.n10 59.5527
R84 drain_right.n13 drain_right.n12 59.5527
R85 drain_right.n5 drain_right.n4 59.5525
R86 drain_right.n2 drain_right.n1 59.5525
R87 drain_right drain_right.n6 30.344
R88 drain_right drain_right.n13 6.19632
R89 drain_right.n3 drain_right.t14 1.6505
R90 drain_right.n3 drain_right.t0 1.6505
R91 drain_right.n4 drain_right.t15 1.6505
R92 drain_right.n4 drain_right.t1 1.6505
R93 drain_right.n1 drain_right.t13 1.6505
R94 drain_right.n1 drain_right.t4 1.6505
R95 drain_right.n0 drain_right.t11 1.6505
R96 drain_right.n0 drain_right.t7 1.6505
R97 drain_right.n7 drain_right.t2 1.6505
R98 drain_right.n7 drain_right.t12 1.6505
R99 drain_right.n8 drain_right.t9 1.6505
R100 drain_right.n8 drain_right.t10 1.6505
R101 drain_right.n10 drain_right.t3 1.6505
R102 drain_right.n10 drain_right.t5 1.6505
R103 drain_right.n12 drain_right.t6 1.6505
R104 drain_right.n12 drain_right.t8 1.6505
R105 drain_right.n13 drain_right.n11 0.543603
R106 drain_right.n11 drain_right.n9 0.543603
R107 drain_right.n6 drain_right.n5 0.216706
R108 drain_right.n6 drain_right.n2 0.216706
R109 source.n546 source.n486 289.615
R110 source.n474 source.n414 289.615
R111 source.n408 source.n348 289.615
R112 source.n336 source.n276 289.615
R113 source.n60 source.n0 289.615
R114 source.n132 source.n72 289.615
R115 source.n198 source.n138 289.615
R116 source.n270 source.n210 289.615
R117 source.n506 source.n505 185
R118 source.n511 source.n510 185
R119 source.n513 source.n512 185
R120 source.n502 source.n501 185
R121 source.n519 source.n518 185
R122 source.n521 source.n520 185
R123 source.n498 source.n497 185
R124 source.n528 source.n527 185
R125 source.n529 source.n496 185
R126 source.n531 source.n530 185
R127 source.n494 source.n493 185
R128 source.n537 source.n536 185
R129 source.n539 source.n538 185
R130 source.n490 source.n489 185
R131 source.n545 source.n544 185
R132 source.n547 source.n546 185
R133 source.n434 source.n433 185
R134 source.n439 source.n438 185
R135 source.n441 source.n440 185
R136 source.n430 source.n429 185
R137 source.n447 source.n446 185
R138 source.n449 source.n448 185
R139 source.n426 source.n425 185
R140 source.n456 source.n455 185
R141 source.n457 source.n424 185
R142 source.n459 source.n458 185
R143 source.n422 source.n421 185
R144 source.n465 source.n464 185
R145 source.n467 source.n466 185
R146 source.n418 source.n417 185
R147 source.n473 source.n472 185
R148 source.n475 source.n474 185
R149 source.n368 source.n367 185
R150 source.n373 source.n372 185
R151 source.n375 source.n374 185
R152 source.n364 source.n363 185
R153 source.n381 source.n380 185
R154 source.n383 source.n382 185
R155 source.n360 source.n359 185
R156 source.n390 source.n389 185
R157 source.n391 source.n358 185
R158 source.n393 source.n392 185
R159 source.n356 source.n355 185
R160 source.n399 source.n398 185
R161 source.n401 source.n400 185
R162 source.n352 source.n351 185
R163 source.n407 source.n406 185
R164 source.n409 source.n408 185
R165 source.n296 source.n295 185
R166 source.n301 source.n300 185
R167 source.n303 source.n302 185
R168 source.n292 source.n291 185
R169 source.n309 source.n308 185
R170 source.n311 source.n310 185
R171 source.n288 source.n287 185
R172 source.n318 source.n317 185
R173 source.n319 source.n286 185
R174 source.n321 source.n320 185
R175 source.n284 source.n283 185
R176 source.n327 source.n326 185
R177 source.n329 source.n328 185
R178 source.n280 source.n279 185
R179 source.n335 source.n334 185
R180 source.n337 source.n336 185
R181 source.n61 source.n60 185
R182 source.n59 source.n58 185
R183 source.n4 source.n3 185
R184 source.n53 source.n52 185
R185 source.n51 source.n50 185
R186 source.n8 source.n7 185
R187 source.n45 source.n44 185
R188 source.n43 source.n10 185
R189 source.n42 source.n41 185
R190 source.n13 source.n11 185
R191 source.n36 source.n35 185
R192 source.n34 source.n33 185
R193 source.n17 source.n16 185
R194 source.n28 source.n27 185
R195 source.n26 source.n25 185
R196 source.n21 source.n20 185
R197 source.n133 source.n132 185
R198 source.n131 source.n130 185
R199 source.n76 source.n75 185
R200 source.n125 source.n124 185
R201 source.n123 source.n122 185
R202 source.n80 source.n79 185
R203 source.n117 source.n116 185
R204 source.n115 source.n82 185
R205 source.n114 source.n113 185
R206 source.n85 source.n83 185
R207 source.n108 source.n107 185
R208 source.n106 source.n105 185
R209 source.n89 source.n88 185
R210 source.n100 source.n99 185
R211 source.n98 source.n97 185
R212 source.n93 source.n92 185
R213 source.n199 source.n198 185
R214 source.n197 source.n196 185
R215 source.n142 source.n141 185
R216 source.n191 source.n190 185
R217 source.n189 source.n188 185
R218 source.n146 source.n145 185
R219 source.n183 source.n182 185
R220 source.n181 source.n148 185
R221 source.n180 source.n179 185
R222 source.n151 source.n149 185
R223 source.n174 source.n173 185
R224 source.n172 source.n171 185
R225 source.n155 source.n154 185
R226 source.n166 source.n165 185
R227 source.n164 source.n163 185
R228 source.n159 source.n158 185
R229 source.n271 source.n270 185
R230 source.n269 source.n268 185
R231 source.n214 source.n213 185
R232 source.n263 source.n262 185
R233 source.n261 source.n260 185
R234 source.n218 source.n217 185
R235 source.n255 source.n254 185
R236 source.n253 source.n220 185
R237 source.n252 source.n251 185
R238 source.n223 source.n221 185
R239 source.n246 source.n245 185
R240 source.n244 source.n243 185
R241 source.n227 source.n226 185
R242 source.n238 source.n237 185
R243 source.n236 source.n235 185
R244 source.n231 source.n230 185
R245 source.n507 source.t20 149.524
R246 source.n435 source.t30 149.524
R247 source.n369 source.t7 149.524
R248 source.n297 source.t4 149.524
R249 source.n22 source.t1 149.524
R250 source.n94 source.t6 149.524
R251 source.n160 source.t23 149.524
R252 source.n232 source.t16 149.524
R253 source.n511 source.n505 104.615
R254 source.n512 source.n511 104.615
R255 source.n512 source.n501 104.615
R256 source.n519 source.n501 104.615
R257 source.n520 source.n519 104.615
R258 source.n520 source.n497 104.615
R259 source.n528 source.n497 104.615
R260 source.n529 source.n528 104.615
R261 source.n530 source.n529 104.615
R262 source.n530 source.n493 104.615
R263 source.n537 source.n493 104.615
R264 source.n538 source.n537 104.615
R265 source.n538 source.n489 104.615
R266 source.n545 source.n489 104.615
R267 source.n546 source.n545 104.615
R268 source.n439 source.n433 104.615
R269 source.n440 source.n439 104.615
R270 source.n440 source.n429 104.615
R271 source.n447 source.n429 104.615
R272 source.n448 source.n447 104.615
R273 source.n448 source.n425 104.615
R274 source.n456 source.n425 104.615
R275 source.n457 source.n456 104.615
R276 source.n458 source.n457 104.615
R277 source.n458 source.n421 104.615
R278 source.n465 source.n421 104.615
R279 source.n466 source.n465 104.615
R280 source.n466 source.n417 104.615
R281 source.n473 source.n417 104.615
R282 source.n474 source.n473 104.615
R283 source.n373 source.n367 104.615
R284 source.n374 source.n373 104.615
R285 source.n374 source.n363 104.615
R286 source.n381 source.n363 104.615
R287 source.n382 source.n381 104.615
R288 source.n382 source.n359 104.615
R289 source.n390 source.n359 104.615
R290 source.n391 source.n390 104.615
R291 source.n392 source.n391 104.615
R292 source.n392 source.n355 104.615
R293 source.n399 source.n355 104.615
R294 source.n400 source.n399 104.615
R295 source.n400 source.n351 104.615
R296 source.n407 source.n351 104.615
R297 source.n408 source.n407 104.615
R298 source.n301 source.n295 104.615
R299 source.n302 source.n301 104.615
R300 source.n302 source.n291 104.615
R301 source.n309 source.n291 104.615
R302 source.n310 source.n309 104.615
R303 source.n310 source.n287 104.615
R304 source.n318 source.n287 104.615
R305 source.n319 source.n318 104.615
R306 source.n320 source.n319 104.615
R307 source.n320 source.n283 104.615
R308 source.n327 source.n283 104.615
R309 source.n328 source.n327 104.615
R310 source.n328 source.n279 104.615
R311 source.n335 source.n279 104.615
R312 source.n336 source.n335 104.615
R313 source.n60 source.n59 104.615
R314 source.n59 source.n3 104.615
R315 source.n52 source.n3 104.615
R316 source.n52 source.n51 104.615
R317 source.n51 source.n7 104.615
R318 source.n44 source.n7 104.615
R319 source.n44 source.n43 104.615
R320 source.n43 source.n42 104.615
R321 source.n42 source.n11 104.615
R322 source.n35 source.n11 104.615
R323 source.n35 source.n34 104.615
R324 source.n34 source.n16 104.615
R325 source.n27 source.n16 104.615
R326 source.n27 source.n26 104.615
R327 source.n26 source.n20 104.615
R328 source.n132 source.n131 104.615
R329 source.n131 source.n75 104.615
R330 source.n124 source.n75 104.615
R331 source.n124 source.n123 104.615
R332 source.n123 source.n79 104.615
R333 source.n116 source.n79 104.615
R334 source.n116 source.n115 104.615
R335 source.n115 source.n114 104.615
R336 source.n114 source.n83 104.615
R337 source.n107 source.n83 104.615
R338 source.n107 source.n106 104.615
R339 source.n106 source.n88 104.615
R340 source.n99 source.n88 104.615
R341 source.n99 source.n98 104.615
R342 source.n98 source.n92 104.615
R343 source.n198 source.n197 104.615
R344 source.n197 source.n141 104.615
R345 source.n190 source.n141 104.615
R346 source.n190 source.n189 104.615
R347 source.n189 source.n145 104.615
R348 source.n182 source.n145 104.615
R349 source.n182 source.n181 104.615
R350 source.n181 source.n180 104.615
R351 source.n180 source.n149 104.615
R352 source.n173 source.n149 104.615
R353 source.n173 source.n172 104.615
R354 source.n172 source.n154 104.615
R355 source.n165 source.n154 104.615
R356 source.n165 source.n164 104.615
R357 source.n164 source.n158 104.615
R358 source.n270 source.n269 104.615
R359 source.n269 source.n213 104.615
R360 source.n262 source.n213 104.615
R361 source.n262 source.n261 104.615
R362 source.n261 source.n217 104.615
R363 source.n254 source.n217 104.615
R364 source.n254 source.n253 104.615
R365 source.n253 source.n252 104.615
R366 source.n252 source.n221 104.615
R367 source.n245 source.n221 104.615
R368 source.n245 source.n244 104.615
R369 source.n244 source.n226 104.615
R370 source.n237 source.n226 104.615
R371 source.n237 source.n236 104.615
R372 source.n236 source.n230 104.615
R373 source.t20 source.n505 52.3082
R374 source.t30 source.n433 52.3082
R375 source.t7 source.n367 52.3082
R376 source.t4 source.n295 52.3082
R377 source.t1 source.n20 52.3082
R378 source.t6 source.n92 52.3082
R379 source.t23 source.n158 52.3082
R380 source.t16 source.n230 52.3082
R381 source.n67 source.n66 42.8739
R382 source.n69 source.n68 42.8739
R383 source.n71 source.n70 42.8739
R384 source.n205 source.n204 42.8739
R385 source.n207 source.n206 42.8739
R386 source.n209 source.n208 42.8739
R387 source.n485 source.n484 42.8737
R388 source.n483 source.n482 42.8737
R389 source.n481 source.n480 42.8737
R390 source.n347 source.n346 42.8737
R391 source.n345 source.n344 42.8737
R392 source.n343 source.n342 42.8737
R393 source.n551 source.n550 29.8581
R394 source.n479 source.n478 29.8581
R395 source.n413 source.n412 29.8581
R396 source.n341 source.n340 29.8581
R397 source.n65 source.n64 29.8581
R398 source.n137 source.n136 29.8581
R399 source.n203 source.n202 29.8581
R400 source.n275 source.n274 29.8581
R401 source.n341 source.n275 21.8308
R402 source.n552 source.n65 16.2963
R403 source.n531 source.n496 13.1884
R404 source.n459 source.n424 13.1884
R405 source.n393 source.n358 13.1884
R406 source.n321 source.n286 13.1884
R407 source.n45 source.n10 13.1884
R408 source.n117 source.n82 13.1884
R409 source.n183 source.n148 13.1884
R410 source.n255 source.n220 13.1884
R411 source.n527 source.n526 12.8005
R412 source.n532 source.n494 12.8005
R413 source.n455 source.n454 12.8005
R414 source.n460 source.n422 12.8005
R415 source.n389 source.n388 12.8005
R416 source.n394 source.n356 12.8005
R417 source.n317 source.n316 12.8005
R418 source.n322 source.n284 12.8005
R419 source.n46 source.n8 12.8005
R420 source.n41 source.n12 12.8005
R421 source.n118 source.n80 12.8005
R422 source.n113 source.n84 12.8005
R423 source.n184 source.n146 12.8005
R424 source.n179 source.n150 12.8005
R425 source.n256 source.n218 12.8005
R426 source.n251 source.n222 12.8005
R427 source.n525 source.n498 12.0247
R428 source.n536 source.n535 12.0247
R429 source.n453 source.n426 12.0247
R430 source.n464 source.n463 12.0247
R431 source.n387 source.n360 12.0247
R432 source.n398 source.n397 12.0247
R433 source.n315 source.n288 12.0247
R434 source.n326 source.n325 12.0247
R435 source.n50 source.n49 12.0247
R436 source.n40 source.n13 12.0247
R437 source.n122 source.n121 12.0247
R438 source.n112 source.n85 12.0247
R439 source.n188 source.n187 12.0247
R440 source.n178 source.n151 12.0247
R441 source.n260 source.n259 12.0247
R442 source.n250 source.n223 12.0247
R443 source.n522 source.n521 11.249
R444 source.n539 source.n492 11.249
R445 source.n450 source.n449 11.249
R446 source.n467 source.n420 11.249
R447 source.n384 source.n383 11.249
R448 source.n401 source.n354 11.249
R449 source.n312 source.n311 11.249
R450 source.n329 source.n282 11.249
R451 source.n53 source.n6 11.249
R452 source.n37 source.n36 11.249
R453 source.n125 source.n78 11.249
R454 source.n109 source.n108 11.249
R455 source.n191 source.n144 11.249
R456 source.n175 source.n174 11.249
R457 source.n263 source.n216 11.249
R458 source.n247 source.n246 11.249
R459 source.n518 source.n500 10.4732
R460 source.n540 source.n490 10.4732
R461 source.n446 source.n428 10.4732
R462 source.n468 source.n418 10.4732
R463 source.n380 source.n362 10.4732
R464 source.n402 source.n352 10.4732
R465 source.n308 source.n290 10.4732
R466 source.n330 source.n280 10.4732
R467 source.n54 source.n4 10.4732
R468 source.n33 source.n15 10.4732
R469 source.n126 source.n76 10.4732
R470 source.n105 source.n87 10.4732
R471 source.n192 source.n142 10.4732
R472 source.n171 source.n153 10.4732
R473 source.n264 source.n214 10.4732
R474 source.n243 source.n225 10.4732
R475 source.n507 source.n506 10.2747
R476 source.n435 source.n434 10.2747
R477 source.n369 source.n368 10.2747
R478 source.n297 source.n296 10.2747
R479 source.n22 source.n21 10.2747
R480 source.n94 source.n93 10.2747
R481 source.n160 source.n159 10.2747
R482 source.n232 source.n231 10.2747
R483 source.n517 source.n502 9.69747
R484 source.n544 source.n543 9.69747
R485 source.n445 source.n430 9.69747
R486 source.n472 source.n471 9.69747
R487 source.n379 source.n364 9.69747
R488 source.n406 source.n405 9.69747
R489 source.n307 source.n292 9.69747
R490 source.n334 source.n333 9.69747
R491 source.n58 source.n57 9.69747
R492 source.n32 source.n17 9.69747
R493 source.n130 source.n129 9.69747
R494 source.n104 source.n89 9.69747
R495 source.n196 source.n195 9.69747
R496 source.n170 source.n155 9.69747
R497 source.n268 source.n267 9.69747
R498 source.n242 source.n227 9.69747
R499 source.n550 source.n549 9.45567
R500 source.n478 source.n477 9.45567
R501 source.n412 source.n411 9.45567
R502 source.n340 source.n339 9.45567
R503 source.n64 source.n63 9.45567
R504 source.n136 source.n135 9.45567
R505 source.n202 source.n201 9.45567
R506 source.n274 source.n273 9.45567
R507 source.n549 source.n548 9.3005
R508 source.n488 source.n487 9.3005
R509 source.n543 source.n542 9.3005
R510 source.n541 source.n540 9.3005
R511 source.n492 source.n491 9.3005
R512 source.n535 source.n534 9.3005
R513 source.n533 source.n532 9.3005
R514 source.n509 source.n508 9.3005
R515 source.n504 source.n503 9.3005
R516 source.n515 source.n514 9.3005
R517 source.n517 source.n516 9.3005
R518 source.n500 source.n499 9.3005
R519 source.n523 source.n522 9.3005
R520 source.n525 source.n524 9.3005
R521 source.n526 source.n495 9.3005
R522 source.n477 source.n476 9.3005
R523 source.n416 source.n415 9.3005
R524 source.n471 source.n470 9.3005
R525 source.n469 source.n468 9.3005
R526 source.n420 source.n419 9.3005
R527 source.n463 source.n462 9.3005
R528 source.n461 source.n460 9.3005
R529 source.n437 source.n436 9.3005
R530 source.n432 source.n431 9.3005
R531 source.n443 source.n442 9.3005
R532 source.n445 source.n444 9.3005
R533 source.n428 source.n427 9.3005
R534 source.n451 source.n450 9.3005
R535 source.n453 source.n452 9.3005
R536 source.n454 source.n423 9.3005
R537 source.n411 source.n410 9.3005
R538 source.n350 source.n349 9.3005
R539 source.n405 source.n404 9.3005
R540 source.n403 source.n402 9.3005
R541 source.n354 source.n353 9.3005
R542 source.n397 source.n396 9.3005
R543 source.n395 source.n394 9.3005
R544 source.n371 source.n370 9.3005
R545 source.n366 source.n365 9.3005
R546 source.n377 source.n376 9.3005
R547 source.n379 source.n378 9.3005
R548 source.n362 source.n361 9.3005
R549 source.n385 source.n384 9.3005
R550 source.n387 source.n386 9.3005
R551 source.n388 source.n357 9.3005
R552 source.n339 source.n338 9.3005
R553 source.n278 source.n277 9.3005
R554 source.n333 source.n332 9.3005
R555 source.n331 source.n330 9.3005
R556 source.n282 source.n281 9.3005
R557 source.n325 source.n324 9.3005
R558 source.n323 source.n322 9.3005
R559 source.n299 source.n298 9.3005
R560 source.n294 source.n293 9.3005
R561 source.n305 source.n304 9.3005
R562 source.n307 source.n306 9.3005
R563 source.n290 source.n289 9.3005
R564 source.n313 source.n312 9.3005
R565 source.n315 source.n314 9.3005
R566 source.n316 source.n285 9.3005
R567 source.n24 source.n23 9.3005
R568 source.n19 source.n18 9.3005
R569 source.n30 source.n29 9.3005
R570 source.n32 source.n31 9.3005
R571 source.n15 source.n14 9.3005
R572 source.n38 source.n37 9.3005
R573 source.n40 source.n39 9.3005
R574 source.n12 source.n9 9.3005
R575 source.n63 source.n62 9.3005
R576 source.n2 source.n1 9.3005
R577 source.n57 source.n56 9.3005
R578 source.n55 source.n54 9.3005
R579 source.n6 source.n5 9.3005
R580 source.n49 source.n48 9.3005
R581 source.n47 source.n46 9.3005
R582 source.n96 source.n95 9.3005
R583 source.n91 source.n90 9.3005
R584 source.n102 source.n101 9.3005
R585 source.n104 source.n103 9.3005
R586 source.n87 source.n86 9.3005
R587 source.n110 source.n109 9.3005
R588 source.n112 source.n111 9.3005
R589 source.n84 source.n81 9.3005
R590 source.n135 source.n134 9.3005
R591 source.n74 source.n73 9.3005
R592 source.n129 source.n128 9.3005
R593 source.n127 source.n126 9.3005
R594 source.n78 source.n77 9.3005
R595 source.n121 source.n120 9.3005
R596 source.n119 source.n118 9.3005
R597 source.n162 source.n161 9.3005
R598 source.n157 source.n156 9.3005
R599 source.n168 source.n167 9.3005
R600 source.n170 source.n169 9.3005
R601 source.n153 source.n152 9.3005
R602 source.n176 source.n175 9.3005
R603 source.n178 source.n177 9.3005
R604 source.n150 source.n147 9.3005
R605 source.n201 source.n200 9.3005
R606 source.n140 source.n139 9.3005
R607 source.n195 source.n194 9.3005
R608 source.n193 source.n192 9.3005
R609 source.n144 source.n143 9.3005
R610 source.n187 source.n186 9.3005
R611 source.n185 source.n184 9.3005
R612 source.n234 source.n233 9.3005
R613 source.n229 source.n228 9.3005
R614 source.n240 source.n239 9.3005
R615 source.n242 source.n241 9.3005
R616 source.n225 source.n224 9.3005
R617 source.n248 source.n247 9.3005
R618 source.n250 source.n249 9.3005
R619 source.n222 source.n219 9.3005
R620 source.n273 source.n272 9.3005
R621 source.n212 source.n211 9.3005
R622 source.n267 source.n266 9.3005
R623 source.n265 source.n264 9.3005
R624 source.n216 source.n215 9.3005
R625 source.n259 source.n258 9.3005
R626 source.n257 source.n256 9.3005
R627 source.n514 source.n513 8.92171
R628 source.n547 source.n488 8.92171
R629 source.n442 source.n441 8.92171
R630 source.n475 source.n416 8.92171
R631 source.n376 source.n375 8.92171
R632 source.n409 source.n350 8.92171
R633 source.n304 source.n303 8.92171
R634 source.n337 source.n278 8.92171
R635 source.n61 source.n2 8.92171
R636 source.n29 source.n28 8.92171
R637 source.n133 source.n74 8.92171
R638 source.n101 source.n100 8.92171
R639 source.n199 source.n140 8.92171
R640 source.n167 source.n166 8.92171
R641 source.n271 source.n212 8.92171
R642 source.n239 source.n238 8.92171
R643 source.n510 source.n504 8.14595
R644 source.n548 source.n486 8.14595
R645 source.n438 source.n432 8.14595
R646 source.n476 source.n414 8.14595
R647 source.n372 source.n366 8.14595
R648 source.n410 source.n348 8.14595
R649 source.n300 source.n294 8.14595
R650 source.n338 source.n276 8.14595
R651 source.n62 source.n0 8.14595
R652 source.n25 source.n19 8.14595
R653 source.n134 source.n72 8.14595
R654 source.n97 source.n91 8.14595
R655 source.n200 source.n138 8.14595
R656 source.n163 source.n157 8.14595
R657 source.n272 source.n210 8.14595
R658 source.n235 source.n229 8.14595
R659 source.n509 source.n506 7.3702
R660 source.n437 source.n434 7.3702
R661 source.n371 source.n368 7.3702
R662 source.n299 source.n296 7.3702
R663 source.n24 source.n21 7.3702
R664 source.n96 source.n93 7.3702
R665 source.n162 source.n159 7.3702
R666 source.n234 source.n231 7.3702
R667 source.n510 source.n509 5.81868
R668 source.n550 source.n486 5.81868
R669 source.n438 source.n437 5.81868
R670 source.n478 source.n414 5.81868
R671 source.n372 source.n371 5.81868
R672 source.n412 source.n348 5.81868
R673 source.n300 source.n299 5.81868
R674 source.n340 source.n276 5.81868
R675 source.n64 source.n0 5.81868
R676 source.n25 source.n24 5.81868
R677 source.n136 source.n72 5.81868
R678 source.n97 source.n96 5.81868
R679 source.n202 source.n138 5.81868
R680 source.n163 source.n162 5.81868
R681 source.n274 source.n210 5.81868
R682 source.n235 source.n234 5.81868
R683 source.n552 source.n551 5.53498
R684 source.n513 source.n504 5.04292
R685 source.n548 source.n547 5.04292
R686 source.n441 source.n432 5.04292
R687 source.n476 source.n475 5.04292
R688 source.n375 source.n366 5.04292
R689 source.n410 source.n409 5.04292
R690 source.n303 source.n294 5.04292
R691 source.n338 source.n337 5.04292
R692 source.n62 source.n61 5.04292
R693 source.n28 source.n19 5.04292
R694 source.n134 source.n133 5.04292
R695 source.n100 source.n91 5.04292
R696 source.n200 source.n199 5.04292
R697 source.n166 source.n157 5.04292
R698 source.n272 source.n271 5.04292
R699 source.n238 source.n229 5.04292
R700 source.n514 source.n502 4.26717
R701 source.n544 source.n488 4.26717
R702 source.n442 source.n430 4.26717
R703 source.n472 source.n416 4.26717
R704 source.n376 source.n364 4.26717
R705 source.n406 source.n350 4.26717
R706 source.n304 source.n292 4.26717
R707 source.n334 source.n278 4.26717
R708 source.n58 source.n2 4.26717
R709 source.n29 source.n17 4.26717
R710 source.n130 source.n74 4.26717
R711 source.n101 source.n89 4.26717
R712 source.n196 source.n140 4.26717
R713 source.n167 source.n155 4.26717
R714 source.n268 source.n212 4.26717
R715 source.n239 source.n227 4.26717
R716 source.n518 source.n517 3.49141
R717 source.n543 source.n490 3.49141
R718 source.n446 source.n445 3.49141
R719 source.n471 source.n418 3.49141
R720 source.n380 source.n379 3.49141