* NGSPICE file created from diffpair429.ext - technology: sky130A

.subckt diffpair429 minus drain_right drain_left source plus
X0 drain_left.t23 plus.t0 source.t31 a_n2224_n3288# sky130_fd_pr__nfet_01v8 ad=1.98 pd=12.33 as=1.98 ps=12.33 w=12 l=0.25
X1 drain_left.t22 plus.t1 source.t39 a_n2224_n3288# sky130_fd_pr__nfet_01v8 ad=1.98 pd=12.33 as=1.98 ps=12.33 w=12 l=0.25
X2 drain_left.t21 plus.t2 source.t24 a_n2224_n3288# sky130_fd_pr__nfet_01v8 ad=1.98 pd=12.33 as=4.68 ps=24.78 w=12 l=0.25
X3 drain_left.t20 plus.t3 source.t47 a_n2224_n3288# sky130_fd_pr__nfet_01v8 ad=1.98 pd=12.33 as=1.98 ps=12.33 w=12 l=0.25
X4 source.t11 minus.t0 drain_right.t23 a_n2224_n3288# sky130_fd_pr__nfet_01v8 ad=1.98 pd=12.33 as=1.98 ps=12.33 w=12 l=0.25
X5 drain_left.t19 plus.t4 source.t36 a_n2224_n3288# sky130_fd_pr__nfet_01v8 ad=1.98 pd=12.33 as=1.98 ps=12.33 w=12 l=0.25
X6 source.t15 minus.t1 drain_right.t22 a_n2224_n3288# sky130_fd_pr__nfet_01v8 ad=1.98 pd=12.33 as=1.98 ps=12.33 w=12 l=0.25
X7 drain_right.t21 minus.t2 source.t0 a_n2224_n3288# sky130_fd_pr__nfet_01v8 ad=1.98 pd=12.33 as=1.98 ps=12.33 w=12 l=0.25
X8 drain_right.t20 minus.t3 source.t1 a_n2224_n3288# sky130_fd_pr__nfet_01v8 ad=1.98 pd=12.33 as=1.98 ps=12.33 w=12 l=0.25
X9 drain_right.t19 minus.t4 source.t7 a_n2224_n3288# sky130_fd_pr__nfet_01v8 ad=1.98 pd=12.33 as=1.98 ps=12.33 w=12 l=0.25
X10 drain_left.t18 plus.t5 source.t46 a_n2224_n3288# sky130_fd_pr__nfet_01v8 ad=1.98 pd=12.33 as=1.98 ps=12.33 w=12 l=0.25
X11 source.t45 plus.t6 drain_left.t17 a_n2224_n3288# sky130_fd_pr__nfet_01v8 ad=4.68 pd=24.78 as=1.98 ps=12.33 w=12 l=0.25
X12 source.t2 minus.t5 drain_right.t18 a_n2224_n3288# sky130_fd_pr__nfet_01v8 ad=1.98 pd=12.33 as=1.98 ps=12.33 w=12 l=0.25
X13 source.t33 plus.t7 drain_left.t16 a_n2224_n3288# sky130_fd_pr__nfet_01v8 ad=1.98 pd=12.33 as=1.98 ps=12.33 w=12 l=0.25
X14 source.t21 minus.t6 drain_right.t17 a_n2224_n3288# sky130_fd_pr__nfet_01v8 ad=1.98 pd=12.33 as=1.98 ps=12.33 w=12 l=0.25
X15 source.t12 minus.t7 drain_right.t16 a_n2224_n3288# sky130_fd_pr__nfet_01v8 ad=1.98 pd=12.33 as=1.98 ps=12.33 w=12 l=0.25
X16 drain_left.t15 plus.t8 source.t32 a_n2224_n3288# sky130_fd_pr__nfet_01v8 ad=1.98 pd=12.33 as=1.98 ps=12.33 w=12 l=0.25
X17 a_n2224_n3288# a_n2224_n3288# a_n2224_n3288# a_n2224_n3288# sky130_fd_pr__nfet_01v8 ad=4.68 pd=24.78 as=37.44 ps=198.24 w=12 l=0.25
X18 source.t17 minus.t8 drain_right.t15 a_n2224_n3288# sky130_fd_pr__nfet_01v8 ad=1.98 pd=12.33 as=1.98 ps=12.33 w=12 l=0.25
X19 source.t40 plus.t9 drain_left.t14 a_n2224_n3288# sky130_fd_pr__nfet_01v8 ad=4.68 pd=24.78 as=1.98 ps=12.33 w=12 l=0.25
X20 source.t27 plus.t10 drain_left.t13 a_n2224_n3288# sky130_fd_pr__nfet_01v8 ad=1.98 pd=12.33 as=1.98 ps=12.33 w=12 l=0.25
X21 source.t29 plus.t11 drain_left.t12 a_n2224_n3288# sky130_fd_pr__nfet_01v8 ad=1.98 pd=12.33 as=1.98 ps=12.33 w=12 l=0.25
X22 source.t42 plus.t12 drain_left.t11 a_n2224_n3288# sky130_fd_pr__nfet_01v8 ad=1.98 pd=12.33 as=1.98 ps=12.33 w=12 l=0.25
X23 a_n2224_n3288# a_n2224_n3288# a_n2224_n3288# a_n2224_n3288# sky130_fd_pr__nfet_01v8 ad=4.68 pd=24.78 as=0 ps=0 w=12 l=0.25
X24 source.t9 minus.t9 drain_right.t14 a_n2224_n3288# sky130_fd_pr__nfet_01v8 ad=1.98 pd=12.33 as=1.98 ps=12.33 w=12 l=0.25
X25 drain_left.t10 plus.t13 source.t41 a_n2224_n3288# sky130_fd_pr__nfet_01v8 ad=1.98 pd=12.33 as=1.98 ps=12.33 w=12 l=0.25
X26 source.t43 plus.t14 drain_left.t9 a_n2224_n3288# sky130_fd_pr__nfet_01v8 ad=1.98 pd=12.33 as=1.98 ps=12.33 w=12 l=0.25
X27 drain_right.t13 minus.t10 source.t20 a_n2224_n3288# sky130_fd_pr__nfet_01v8 ad=1.98 pd=12.33 as=1.98 ps=12.33 w=12 l=0.25
X28 source.t25 plus.t15 drain_left.t8 a_n2224_n3288# sky130_fd_pr__nfet_01v8 ad=1.98 pd=12.33 as=1.98 ps=12.33 w=12 l=0.25
X29 source.t37 plus.t16 drain_left.t7 a_n2224_n3288# sky130_fd_pr__nfet_01v8 ad=1.98 pd=12.33 as=1.98 ps=12.33 w=12 l=0.25
X30 drain_right.t12 minus.t11 source.t23 a_n2224_n3288# sky130_fd_pr__nfet_01v8 ad=1.98 pd=12.33 as=4.68 ps=24.78 w=12 l=0.25
X31 drain_right.t11 minus.t12 source.t16 a_n2224_n3288# sky130_fd_pr__nfet_01v8 ad=1.98 pd=12.33 as=1.98 ps=12.33 w=12 l=0.25
X32 source.t18 minus.t13 drain_right.t10 a_n2224_n3288# sky130_fd_pr__nfet_01v8 ad=4.68 pd=24.78 as=1.98 ps=12.33 w=12 l=0.25
X33 a_n2224_n3288# a_n2224_n3288# a_n2224_n3288# a_n2224_n3288# sky130_fd_pr__nfet_01v8 ad=4.68 pd=24.78 as=0 ps=0 w=12 l=0.25
X34 drain_right.t9 minus.t14 source.t8 a_n2224_n3288# sky130_fd_pr__nfet_01v8 ad=1.98 pd=12.33 as=4.68 ps=24.78 w=12 l=0.25
X35 drain_left.t6 plus.t17 source.t38 a_n2224_n3288# sky130_fd_pr__nfet_01v8 ad=1.98 pd=12.33 as=1.98 ps=12.33 w=12 l=0.25
X36 drain_right.t8 minus.t15 source.t14 a_n2224_n3288# sky130_fd_pr__nfet_01v8 ad=1.98 pd=12.33 as=1.98 ps=12.33 w=12 l=0.25
X37 source.t30 plus.t18 drain_left.t5 a_n2224_n3288# sky130_fd_pr__nfet_01v8 ad=1.98 pd=12.33 as=1.98 ps=12.33 w=12 l=0.25
X38 drain_left.t4 plus.t19 source.t28 a_n2224_n3288# sky130_fd_pr__nfet_01v8 ad=1.98 pd=12.33 as=1.98 ps=12.33 w=12 l=0.25
X39 source.t19 minus.t16 drain_right.t7 a_n2224_n3288# sky130_fd_pr__nfet_01v8 ad=1.98 pd=12.33 as=1.98 ps=12.33 w=12 l=0.25
X40 source.t22 minus.t17 drain_right.t6 a_n2224_n3288# sky130_fd_pr__nfet_01v8 ad=1.98 pd=12.33 as=1.98 ps=12.33 w=12 l=0.25
X41 source.t4 minus.t18 drain_right.t5 a_n2224_n3288# sky130_fd_pr__nfet_01v8 ad=1.98 pd=12.33 as=1.98 ps=12.33 w=12 l=0.25
X42 source.t26 plus.t20 drain_left.t3 a_n2224_n3288# sky130_fd_pr__nfet_01v8 ad=1.98 pd=12.33 as=1.98 ps=12.33 w=12 l=0.25
X43 drain_right.t4 minus.t19 source.t10 a_n2224_n3288# sky130_fd_pr__nfet_01v8 ad=1.98 pd=12.33 as=1.98 ps=12.33 w=12 l=0.25
X44 drain_right.t3 minus.t20 source.t13 a_n2224_n3288# sky130_fd_pr__nfet_01v8 ad=1.98 pd=12.33 as=1.98 ps=12.33 w=12 l=0.25
X45 drain_left.t2 plus.t21 source.t44 a_n2224_n3288# sky130_fd_pr__nfet_01v8 ad=1.98 pd=12.33 as=4.68 ps=24.78 w=12 l=0.25
X46 drain_right.t2 minus.t21 source.t5 a_n2224_n3288# sky130_fd_pr__nfet_01v8 ad=1.98 pd=12.33 as=1.98 ps=12.33 w=12 l=0.25
X47 drain_right.t1 minus.t22 source.t3 a_n2224_n3288# sky130_fd_pr__nfet_01v8 ad=1.98 pd=12.33 as=1.98 ps=12.33 w=12 l=0.25
X48 drain_left.t1 plus.t22 source.t35 a_n2224_n3288# sky130_fd_pr__nfet_01v8 ad=1.98 pd=12.33 as=1.98 ps=12.33 w=12 l=0.25
X49 source.t6 minus.t23 drain_right.t0 a_n2224_n3288# sky130_fd_pr__nfet_01v8 ad=4.68 pd=24.78 as=1.98 ps=12.33 w=12 l=0.25
X50 source.t34 plus.t23 drain_left.t0 a_n2224_n3288# sky130_fd_pr__nfet_01v8 ad=1.98 pd=12.33 as=1.98 ps=12.33 w=12 l=0.25
X51 a_n2224_n3288# a_n2224_n3288# a_n2224_n3288# a_n2224_n3288# sky130_fd_pr__nfet_01v8 ad=4.68 pd=24.78 as=0 ps=0 w=12 l=0.25
R0 plus.n6 plus.t6 1309.87
R1 plus.n33 plus.t2 1309.87
R2 plus.n42 plus.t21 1309.87
R3 plus.n68 plus.t9 1309.87
R4 plus.n7 plus.t1 1282.12
R5 plus.n8 plus.t12 1282.12
R6 plus.n14 plus.t0 1282.12
R7 plus.n16 plus.t11 1282.12
R8 plus.n3 plus.t22 1282.12
R9 plus.n21 plus.t10 1282.12
R10 plus.n23 plus.t4 1282.12
R11 plus.n24 plus.t16 1282.12
R12 plus.n30 plus.t3 1282.12
R13 plus.n32 plus.t14 1282.12
R14 plus.n44 plus.t18 1282.12
R15 plus.n43 plus.t8 1282.12
R16 plus.n50 plus.t23 1282.12
R17 plus.n52 plus.t5 1282.12
R18 plus.n39 plus.t20 1282.12
R19 plus.n57 plus.t17 1282.12
R20 plus.n59 plus.t7 1282.12
R21 plus.n38 plus.t19 1282.12
R22 plus.n65 plus.t15 1282.12
R23 plus.n67 plus.t13 1282.12
R24 plus.n10 plus.n6 161.489
R25 plus.n46 plus.n42 161.489
R26 plus.n10 plus.n9 161.3
R27 plus.n11 plus.n5 161.3
R28 plus.n13 plus.n12 161.3
R29 plus.n15 plus.n4 161.3
R30 plus.n18 plus.n17 161.3
R31 plus.n20 plus.n19 161.3
R32 plus.n22 plus.n2 161.3
R33 plus.n26 plus.n25 161.3
R34 plus.n27 plus.n1 161.3
R35 plus.n29 plus.n28 161.3
R36 plus.n31 plus.n0 161.3
R37 plus.n34 plus.n33 161.3
R38 plus.n46 plus.n45 161.3
R39 plus.n47 plus.n41 161.3
R40 plus.n49 plus.n48 161.3
R41 plus.n51 plus.n40 161.3
R42 plus.n54 plus.n53 161.3
R43 plus.n56 plus.n55 161.3
R44 plus.n58 plus.n37 161.3
R45 plus.n61 plus.n60 161.3
R46 plus.n62 plus.n36 161.3
R47 plus.n64 plus.n63 161.3
R48 plus.n66 plus.n35 161.3
R49 plus.n69 plus.n68 161.3
R50 plus.n13 plus.n5 73.0308
R51 plus.n29 plus.n1 73.0308
R52 plus.n64 plus.n36 73.0308
R53 plus.n49 plus.n41 73.0308
R54 plus.n9 plus.n8 68.649
R55 plus.n31 plus.n30 68.649
R56 plus.n66 plus.n65 68.649
R57 plus.n45 plus.n43 68.649
R58 plus.n15 plus.n14 65.7278
R59 plus.n25 plus.n24 65.7278
R60 plus.n60 plus.n38 65.7278
R61 plus.n51 plus.n50 65.7278
R62 plus.n7 plus.n6 56.9641
R63 plus.n33 plus.n32 56.9641
R64 plus.n68 plus.n67 56.9641
R65 plus.n44 plus.n42 56.9641
R66 plus.n17 plus.n16 54.0429
R67 plus.n23 plus.n22 54.0429
R68 plus.n59 plus.n58 54.0429
R69 plus.n53 plus.n52 54.0429
R70 plus.n20 plus.n3 42.3581
R71 plus.n21 plus.n20 42.3581
R72 plus.n57 plus.n56 42.3581
R73 plus.n56 plus.n39 42.3581
R74 plus plus.n69 31.3589
R75 plus.n17 plus.n3 30.6732
R76 plus.n22 plus.n21 30.6732
R77 plus.n58 plus.n57 30.6732
R78 plus.n53 plus.n39 30.6732
R79 plus.n16 plus.n15 18.9884
R80 plus.n25 plus.n23 18.9884
R81 plus.n60 plus.n59 18.9884
R82 plus.n52 plus.n51 18.9884
R83 plus.n9 plus.n7 16.0672
R84 plus.n32 plus.n31 16.0672
R85 plus.n67 plus.n66 16.0672
R86 plus.n45 plus.n44 16.0672
R87 plus plus.n34 12.0763
R88 plus.n14 plus.n13 7.30353
R89 plus.n24 plus.n1 7.30353
R90 plus.n38 plus.n36 7.30353
R91 plus.n50 plus.n49 7.30353
R92 plus.n8 plus.n5 4.38232
R93 plus.n30 plus.n29 4.38232
R94 plus.n65 plus.n64 4.38232
R95 plus.n43 plus.n41 4.38232
R96 plus.n11 plus.n10 0.189894
R97 plus.n12 plus.n11 0.189894
R98 plus.n12 plus.n4 0.189894
R99 plus.n18 plus.n4 0.189894
R100 plus.n19 plus.n18 0.189894
R101 plus.n19 plus.n2 0.189894
R102 plus.n26 plus.n2 0.189894
R103 plus.n27 plus.n26 0.189894
R104 plus.n28 plus.n27 0.189894
R105 plus.n28 plus.n0 0.189894
R106 plus.n34 plus.n0 0.189894
R107 plus.n69 plus.n35 0.189894
R108 plus.n63 plus.n35 0.189894
R109 plus.n63 plus.n62 0.189894
R110 plus.n62 plus.n61 0.189894
R111 plus.n61 plus.n37 0.189894
R112 plus.n55 plus.n37 0.189894
R113 plus.n55 plus.n54 0.189894
R114 plus.n54 plus.n40 0.189894
R115 plus.n48 plus.n40 0.189894
R116 plus.n48 plus.n47 0.189894
R117 plus.n47 plus.n46 0.189894
R118 source.n562 source.n502 289.615
R119 source.n486 source.n426 289.615
R120 source.n420 source.n360 289.615
R121 source.n344 source.n284 289.615
R122 source.n60 source.n0 289.615
R123 source.n136 source.n76 289.615
R124 source.n202 source.n142 289.615
R125 source.n278 source.n218 289.615
R126 source.n522 source.n521 185
R127 source.n527 source.n526 185
R128 source.n529 source.n528 185
R129 source.n518 source.n517 185
R130 source.n535 source.n534 185
R131 source.n537 source.n536 185
R132 source.n514 source.n513 185
R133 source.n544 source.n543 185
R134 source.n545 source.n512 185
R135 source.n547 source.n546 185
R136 source.n510 source.n509 185
R137 source.n553 source.n552 185
R138 source.n555 source.n554 185
R139 source.n506 source.n505 185
R140 source.n561 source.n560 185
R141 source.n563 source.n562 185
R142 source.n446 source.n445 185
R143 source.n451 source.n450 185
R144 source.n453 source.n452 185
R145 source.n442 source.n441 185
R146 source.n459 source.n458 185
R147 source.n461 source.n460 185
R148 source.n438 source.n437 185
R149 source.n468 source.n467 185
R150 source.n469 source.n436 185
R151 source.n471 source.n470 185
R152 source.n434 source.n433 185
R153 source.n477 source.n476 185
R154 source.n479 source.n478 185
R155 source.n430 source.n429 185
R156 source.n485 source.n484 185
R157 source.n487 source.n486 185
R158 source.n380 source.n379 185
R159 source.n385 source.n384 185
R160 source.n387 source.n386 185
R161 source.n376 source.n375 185
R162 source.n393 source.n392 185
R163 source.n395 source.n394 185
R164 source.n372 source.n371 185
R165 source.n402 source.n401 185
R166 source.n403 source.n370 185
R167 source.n405 source.n404 185
R168 source.n368 source.n367 185
R169 source.n411 source.n410 185
R170 source.n413 source.n412 185
R171 source.n364 source.n363 185
R172 source.n419 source.n418 185
R173 source.n421 source.n420 185
R174 source.n304 source.n303 185
R175 source.n309 source.n308 185
R176 source.n311 source.n310 185
R177 source.n300 source.n299 185
R178 source.n317 source.n316 185
R179 source.n319 source.n318 185
R180 source.n296 source.n295 185
R181 source.n326 source.n325 185
R182 source.n327 source.n294 185
R183 source.n329 source.n328 185
R184 source.n292 source.n291 185
R185 source.n335 source.n334 185
R186 source.n337 source.n336 185
R187 source.n288 source.n287 185
R188 source.n343 source.n342 185
R189 source.n345 source.n344 185
R190 source.n61 source.n60 185
R191 source.n59 source.n58 185
R192 source.n4 source.n3 185
R193 source.n53 source.n52 185
R194 source.n51 source.n50 185
R195 source.n8 source.n7 185
R196 source.n45 source.n44 185
R197 source.n43 source.n10 185
R198 source.n42 source.n41 185
R199 source.n13 source.n11 185
R200 source.n36 source.n35 185
R201 source.n34 source.n33 185
R202 source.n17 source.n16 185
R203 source.n28 source.n27 185
R204 source.n26 source.n25 185
R205 source.n21 source.n20 185
R206 source.n137 source.n136 185
R207 source.n135 source.n134 185
R208 source.n80 source.n79 185
R209 source.n129 source.n128 185
R210 source.n127 source.n126 185
R211 source.n84 source.n83 185
R212 source.n121 source.n120 185
R213 source.n119 source.n86 185
R214 source.n118 source.n117 185
R215 source.n89 source.n87 185
R216 source.n112 source.n111 185
R217 source.n110 source.n109 185
R218 source.n93 source.n92 185
R219 source.n104 source.n103 185
R220 source.n102 source.n101 185
R221 source.n97 source.n96 185
R222 source.n203 source.n202 185
R223 source.n201 source.n200 185
R224 source.n146 source.n145 185
R225 source.n195 source.n194 185
R226 source.n193 source.n192 185
R227 source.n150 source.n149 185
R228 source.n187 source.n186 185
R229 source.n185 source.n152 185
R230 source.n184 source.n183 185
R231 source.n155 source.n153 185
R232 source.n178 source.n177 185
R233 source.n176 source.n175 185
R234 source.n159 source.n158 185
R235 source.n170 source.n169 185
R236 source.n168 source.n167 185
R237 source.n163 source.n162 185
R238 source.n279 source.n278 185
R239 source.n277 source.n276 185
R240 source.n222 source.n221 185
R241 source.n271 source.n270 185
R242 source.n269 source.n268 185
R243 source.n226 source.n225 185
R244 source.n263 source.n262 185
R245 source.n261 source.n228 185
R246 source.n260 source.n259 185
R247 source.n231 source.n229 185
R248 source.n254 source.n253 185
R249 source.n252 source.n251 185
R250 source.n235 source.n234 185
R251 source.n246 source.n245 185
R252 source.n244 source.n243 185
R253 source.n239 source.n238 185
R254 source.n523 source.t8 149.524
R255 source.n447 source.t6 149.524
R256 source.n381 source.t44 149.524
R257 source.n305 source.t40 149.524
R258 source.n22 source.t24 149.524
R259 source.n98 source.t45 149.524
R260 source.n164 source.t23 149.524
R261 source.n240 source.t18 149.524
R262 source.n527 source.n521 104.615
R263 source.n528 source.n527 104.615
R264 source.n528 source.n517 104.615
R265 source.n535 source.n517 104.615
R266 source.n536 source.n535 104.615
R267 source.n536 source.n513 104.615
R268 source.n544 source.n513 104.615
R269 source.n545 source.n544 104.615
R270 source.n546 source.n545 104.615
R271 source.n546 source.n509 104.615
R272 source.n553 source.n509 104.615
R273 source.n554 source.n553 104.615
R274 source.n554 source.n505 104.615
R275 source.n561 source.n505 104.615
R276 source.n562 source.n561 104.615
R277 source.n451 source.n445 104.615
R278 source.n452 source.n451 104.615
R279 source.n452 source.n441 104.615
R280 source.n459 source.n441 104.615
R281 source.n460 source.n459 104.615
R282 source.n460 source.n437 104.615
R283 source.n468 source.n437 104.615
R284 source.n469 source.n468 104.615
R285 source.n470 source.n469 104.615
R286 source.n470 source.n433 104.615
R287 source.n477 source.n433 104.615
R288 source.n478 source.n477 104.615
R289 source.n478 source.n429 104.615
R290 source.n485 source.n429 104.615
R291 source.n486 source.n485 104.615
R292 source.n385 source.n379 104.615
R293 source.n386 source.n385 104.615
R294 source.n386 source.n375 104.615
R295 source.n393 source.n375 104.615
R296 source.n394 source.n393 104.615
R297 source.n394 source.n371 104.615
R298 source.n402 source.n371 104.615
R299 source.n403 source.n402 104.615
R300 source.n404 source.n403 104.615
R301 source.n404 source.n367 104.615
R302 source.n411 source.n367 104.615
R303 source.n412 source.n411 104.615
R304 source.n412 source.n363 104.615
R305 source.n419 source.n363 104.615
R306 source.n420 source.n419 104.615
R307 source.n309 source.n303 104.615
R308 source.n310 source.n309 104.615
R309 source.n310 source.n299 104.615
R310 source.n317 source.n299 104.615
R311 source.n318 source.n317 104.615
R312 source.n318 source.n295 104.615
R313 source.n326 source.n295 104.615
R314 source.n327 source.n326 104.615
R315 source.n328 source.n327 104.615
R316 source.n328 source.n291 104.615
R317 source.n335 source.n291 104.615
R318 source.n336 source.n335 104.615
R319 source.n336 source.n287 104.615
R320 source.n343 source.n287 104.615
R321 source.n344 source.n343 104.615
R322 source.n60 source.n59 104.615
R323 source.n59 source.n3 104.615
R324 source.n52 source.n3 104.615
R325 source.n52 source.n51 104.615
R326 source.n51 source.n7 104.615
R327 source.n44 source.n7 104.615
R328 source.n44 source.n43 104.615
R329 source.n43 source.n42 104.615
R330 source.n42 source.n11 104.615
R331 source.n35 source.n11 104.615
R332 source.n35 source.n34 104.615
R333 source.n34 source.n16 104.615
R334 source.n27 source.n16 104.615
R335 source.n27 source.n26 104.615
R336 source.n26 source.n20 104.615
R337 source.n136 source.n135 104.615
R338 source.n135 source.n79 104.615
R339 source.n128 source.n79 104.615
R340 source.n128 source.n127 104.615
R341 source.n127 source.n83 104.615
R342 source.n120 source.n83 104.615
R343 source.n120 source.n119 104.615
R344 source.n119 source.n118 104.615
R345 source.n118 source.n87 104.615
R346 source.n111 source.n87 104.615
R347 source.n111 source.n110 104.615
R348 source.n110 source.n92 104.615
R349 source.n103 source.n92 104.615
R350 source.n103 source.n102 104.615
R351 source.n102 source.n96 104.615
R352 source.n202 source.n201 104.615
R353 source.n201 source.n145 104.615
R354 source.n194 source.n145 104.615
R355 source.n194 source.n193 104.615
R356 source.n193 source.n149 104.615
R357 source.n186 source.n149 104.615
R358 source.n186 source.n185 104.615
R359 source.n185 source.n184 104.615
R360 source.n184 source.n153 104.615
R361 source.n177 source.n153 104.615
R362 source.n177 source.n176 104.615
R363 source.n176 source.n158 104.615
R364 source.n169 source.n158 104.615
R365 source.n169 source.n168 104.615
R366 source.n168 source.n162 104.615
R367 source.n278 source.n277 104.615
R368 source.n277 source.n221 104.615
R369 source.n270 source.n221 104.615
R370 source.n270 source.n269 104.615
R371 source.n269 source.n225 104.615
R372 source.n262 source.n225 104.615
R373 source.n262 source.n261 104.615
R374 source.n261 source.n260 104.615
R375 source.n260 source.n229 104.615
R376 source.n253 source.n229 104.615
R377 source.n253 source.n252 104.615
R378 source.n252 source.n234 104.615
R379 source.n245 source.n234 104.615
R380 source.n245 source.n244 104.615
R381 source.n244 source.n238 104.615
R382 source.t8 source.n521 52.3082
R383 source.t6 source.n445 52.3082
R384 source.t44 source.n379 52.3082
R385 source.t40 source.n303 52.3082
R386 source.t24 source.n20 52.3082
R387 source.t45 source.n96 52.3082
R388 source.t23 source.n162 52.3082
R389 source.t18 source.n238 52.3082
R390 source.n67 source.n66 42.8739
R391 source.n69 source.n68 42.8739
R392 source.n71 source.n70 42.8739
R393 source.n73 source.n72 42.8739
R394 source.n75 source.n74 42.8739
R395 source.n209 source.n208 42.8739
R396 source.n211 source.n210 42.8739
R397 source.n213 source.n212 42.8739
R398 source.n215 source.n214 42.8739
R399 source.n217 source.n216 42.8739
R400 source.n501 source.n500 42.8737
R401 source.n499 source.n498 42.8737
R402 source.n497 source.n496 42.8737
R403 source.n495 source.n494 42.8737
R404 source.n493 source.n492 42.8737
R405 source.n359 source.n358 42.8737
R406 source.n357 source.n356 42.8737
R407 source.n355 source.n354 42.8737
R408 source.n353 source.n352 42.8737
R409 source.n351 source.n350 42.8737
R410 source.n567 source.n566 29.8581
R411 source.n491 source.n490 29.8581
R412 source.n425 source.n424 29.8581
R413 source.n349 source.n348 29.8581
R414 source.n65 source.n64 29.8581
R415 source.n141 source.n140 29.8581
R416 source.n207 source.n206 29.8581
R417 source.n283 source.n282 29.8581
R418 source.n349 source.n283 21.7877
R419 source.n568 source.n65 16.2748
R420 source.n547 source.n512 13.1884
R421 source.n471 source.n436 13.1884
R422 source.n405 source.n370 13.1884
R423 source.n329 source.n294 13.1884
R424 source.n45 source.n10 13.1884
R425 source.n121 source.n86 13.1884
R426 source.n187 source.n152 13.1884
R427 source.n263 source.n228 13.1884
R428 source.n543 source.n542 12.8005
R429 source.n548 source.n510 12.8005
R430 source.n467 source.n466 12.8005
R431 source.n472 source.n434 12.8005
R432 source.n401 source.n400 12.8005
R433 source.n406 source.n368 12.8005
R434 source.n325 source.n324 12.8005
R435 source.n330 source.n292 12.8005
R436 source.n46 source.n8 12.8005
R437 source.n41 source.n12 12.8005
R438 source.n122 source.n84 12.8005
R439 source.n117 source.n88 12.8005
R440 source.n188 source.n150 12.8005
R441 source.n183 source.n154 12.8005
R442 source.n264 source.n226 12.8005
R443 source.n259 source.n230 12.8005
R444 source.n541 source.n514 12.0247
R445 source.n552 source.n551 12.0247
R446 source.n465 source.n438 12.0247
R447 source.n476 source.n475 12.0247
R448 source.n399 source.n372 12.0247
R449 source.n410 source.n409 12.0247
R450 source.n323 source.n296 12.0247
R451 source.n334 source.n333 12.0247
R452 source.n50 source.n49 12.0247
R453 source.n40 source.n13 12.0247
R454 source.n126 source.n125 12.0247
R455 source.n116 source.n89 12.0247
R456 source.n192 source.n191 12.0247
R457 source.n182 source.n155 12.0247
R458 source.n268 source.n267 12.0247
R459 source.n258 source.n231 12.0247
R460 source.n538 source.n537 11.249
R461 source.n555 source.n508 11.249
R462 source.n462 source.n461 11.249
R463 source.n479 source.n432 11.249
R464 source.n396 source.n395 11.249
R465 source.n413 source.n366 11.249
R466 source.n320 source.n319 11.249
R467 source.n337 source.n290 11.249
R468 source.n53 source.n6 11.249
R469 source.n37 source.n36 11.249
R470 source.n129 source.n82 11.249
R471 source.n113 source.n112 11.249
R472 source.n195 source.n148 11.249
R473 source.n179 source.n178 11.249
R474 source.n271 source.n224 11.249
R475 source.n255 source.n254 11.249
R476 source.n534 source.n516 10.4732
R477 source.n556 source.n506 10.4732
R478 source.n458 source.n440 10.4732
R479 source.n480 source.n430 10.4732
R480 source.n392 source.n374 10.4732
R481 source.n414 source.n364 10.4732
R482 source.n316 source.n298 10.4732
R483 source.n338 source.n288 10.4732
R484 source.n54 source.n4 10.4732
R485 source.n33 source.n15 10.4732
R486 source.n130 source.n80 10.4732
R487 source.n109 source.n91 10.4732
R488 source.n196 source.n146 10.4732
R489 source.n175 source.n157 10.4732
R490 source.n272 source.n222 10.4732
R491 source.n251 source.n233 10.4732
R492 source.n523 source.n522 10.2747
R493 source.n447 source.n446 10.2747
R494 source.n381 source.n380 10.2747
R495 source.n305 source.n304 10.2747
R496 source.n22 source.n21 10.2747
R497 source.n98 source.n97 10.2747
R498 source.n164 source.n163 10.2747
R499 source.n240 source.n239 10.2747
R500 source.n533 source.n518 9.69747
R501 source.n560 source.n559 9.69747
R502 source.n457 source.n442 9.69747
R503 source.n484 source.n483 9.69747
R504 source.n391 source.n376 9.69747
R505 source.n418 source.n417 9.69747
R506 source.n315 source.n300 9.69747
R507 source.n342 source.n341 9.69747
R508 source.n58 source.n57 9.69747
R509 source.n32 source.n17 9.69747
R510 source.n134 source.n133 9.69747
R511 source.n108 source.n93 9.69747
R512 source.n200 source.n199 9.69747
R513 source.n174 source.n159 9.69747
R514 source.n276 source.n275 9.69747
R515 source.n250 source.n235 9.69747
R516 source.n566 source.n565 9.45567
R517 source.n490 source.n489 9.45567
R518 source.n424 source.n423 9.45567
R519 source.n348 source.n347 9.45567
R520 source.n64 source.n63 9.45567
R521 source.n140 source.n139 9.45567
R522 source.n206 source.n205 9.45567
R523 source.n282 source.n281 9.45567
R524 source.n565 source.n564 9.3005
R525 source.n504 source.n503 9.3005
R526 source.n559 source.n558 9.3005
R527 source.n557 source.n556 9.3005
R528 source.n508 source.n507 9.3005
R529 source.n551 source.n550 9.3005
R530 source.n549 source.n548 9.3005
R531 source.n525 source.n524 9.3005
R532 source.n520 source.n519 9.3005
R533 source.n531 source.n530 9.3005
R534 source.n533 source.n532 9.3005
R535 source.n516 source.n515 9.3005
R536 source.n539 source.n538 9.3005
R537 source.n541 source.n540 9.3005
R538 source.n542 source.n511 9.3005
R539 source.n489 source.n488 9.3005
R540 source.n428 source.n427 9.3005
R541 source.n483 source.n482 9.3005
R542 source.n481 source.n480 9.3005
R543 source.n432 source.n431 9.3005
R544 source.n475 source.n474 9.3005
R545 source.n473 source.n472 9.3005
R546 source.n449 source.n448 9.3005
R547 source.n444 source.n443 9.3005
R548 source.n455 source.n454 9.3005
R549 source.n457 source.n456 9.3005
R550 source.n440 source.n439 9.3005
R551 source.n463 source.n462 9.3005
R552 source.n465 source.n464 9.3005
R553 source.n466 source.n435 9.3005
R554 source.n423 source.n422 9.3005
R555 source.n362 source.n361 9.3005
R556 source.n417 source.n416 9.3005
R557 source.n415 source.n414 9.3005
R558 source.n366 source.n365 9.3005
R559 source.n409 source.n408 9.3005
R560 source.n407 source.n406 9.3005
R561 source.n383 source.n382 9.3005
R562 source.n378 source.n377 9.3005
R563 source.n389 source.n388 9.3005
R564 source.n391 source.n390 9.3005
R565 source.n374 source.n373 9.3005
R566 source.n397 source.n396 9.3005
R567 source.n399 source.n398 9.3005
R568 source.n400 source.n369 9.3005
R569 source.n347 source.n346 9.3005
R570 source.n286 source.n285 9.3005
R571 source.n341 source.n340 9.3005
R572 source.n339 source.n338 9.3005
R573 source.n290 source.n289 9.3005
R574 source.n333 source.n332 9.3005
R575 source.n331 source.n330 9.3005
R576 source.n307 source.n306 9.3005
R577 source.n302 source.n301 9.3005
R578 source.n313 source.n312 9.3005
R579 source.n315 source.n314 9.3005
R580 source.n298 source.n297 9.3005
R581 source.n321 source.n320 9.3005
R582 source.n323 source.n322 9.3005
R583 source.n324 source.n293 9.3005
R584 source.n24 source.n23 9.3005
R585 source.n19 source.n18 9.3005
R586 source.n30 source.n29 9.3005
R587 source.n32 source.n31 9.3005
R588 source.n15 source.n14 9.3005
R589 source.n38 source.n37 9.3005
R590 source.n40 source.n39 9.3005
R591 source.n12 source.n9 9.3005
R592 source.n63 source.n62 9.3005
R593 source.n2 source.n1 9.3005
R594 source.n57 source.n56 9.3005
R595 source.n55 source.n54 9.3005
R596 source.n6 source.n5 9.3005
R597 source.n49 source.n48 9.3005
R598 source.n47 source.n46 9.3005
R599 source.n100 source.n99 9.3005
R600 source.n95 source.n94 9.3005
R601 source.n106 source.n105 9.3005
R602 source.n108 source.n107 9.3005
R603 source.n91 source.n90 9.3005
R604 source.n114 source.n113 9.3005
R605 source.n116 source.n115 9.3005
R606 source.n88 source.n85 9.3005
R607 source.n139 source.n138 9.3005
R608 source.n78 source.n77 9.3005
R609 source.n133 source.n132 9.3005
R610 source.n131 source.n130 9.3005
R611 source.n82 source.n81 9.3005
R612 source.n125 source.n124 9.3005
R613 source.n123 source.n122 9.3005
R614 source.n166 source.n165 9.3005
R615 source.n161 source.n160 9.3005
R616 source.n172 source.n171 9.3005
R617 source.n174 source.n173 9.3005
R618 source.n157 source.n156 9.3005
R619 source.n180 source.n179 9.3005
R620 source.n182 source.n181 9.3005
R621 source.n154 source.n151 9.3005
R622 source.n205 source.n204 9.3005
R623 source.n144 source.n143 9.3005
R624 source.n199 source.n198 9.3005
R625 source.n197 source.n196 9.3005
R626 source.n148 source.n147 9.3005
R627 source.n191 source.n190 9.3005
R628 source.n189 source.n188 9.3005
R629 source.n242 source.n241 9.3005
R630 source.n237 source.n236 9.3005
R631 source.n248 source.n247 9.3005
R632 source.n250 source.n249 9.3005
R633 source.n233 source.n232 9.3005
R634 source.n256 source.n255 9.3005
R635 source.n258 source.n257 9.3005
R636 source.n230 source.n227 9.3005
R637 source.n281 source.n280 9.3005
R638 source.n220 source.n219 9.3005
R639 source.n275 source.n274 9.3005
R640 source.n273 source.n272 9.3005
R641 source.n224 source.n223 9.3005
R642 source.n267 source.n266 9.3005
R643 source.n265 source.n264 9.3005
R644 source.n530 source.n529 8.92171
R645 source.n563 source.n504 8.92171
R646 source.n454 source.n453 8.92171
R647 source.n487 source.n428 8.92171
R648 source.n388 source.n387 8.92171
R649 source.n421 source.n362 8.92171
R650 source.n312 source.n311 8.92171
R651 source.n345 source.n286 8.92171
R652 source.n61 source.n2 8.92171
R653 source.n29 source.n28 8.92171
R654 source.n137 source.n78 8.92171
R655 source.n105 source.n104 8.92171
R656 source.n203 source.n144 8.92171
R657 source.n171 source.n170 8.92171
R658 source.n279 source.n220 8.92171
R659 source.n247 source.n246 8.92171
R660 source.n526 source.n520 8.14595
R661 source.n564 source.n502 8.14595
R662 source.n450 source.n444 8.14595
R663 source.n488 source.n426 8.14595
R664 source.n384 source.n378 8.14595
R665 source.n422 source.n360 8.14595
R666 source.n308 source.n302 8.14595
R667 source.n346 source.n284 8.14595
R668 source.n62 source.n0 8.14595
R669 source.n25 source.n19 8.14595
R670 source.n138 source.n76 8.14595
R671 source.n101 source.n95 8.14595
R672 source.n204 source.n142 8.14595
R673 source.n167 source.n161 8.14595
R674 source.n280 source.n218 8.14595
R675 source.n243 source.n237 8.14595
R676 source.n525 source.n522 7.3702
R677 source.n449 source.n446 7.3702
R678 source.n383 source.n380 7.3702
R679 source.n307 source.n304 7.3702