* NGSPICE file created from diffpair716.ext - technology: sky130A

.subckt diffpair716 minus drain_right drain_left source plus
X0 drain_right.t13 minus.t0 source.t21 a_n2524_n5888# sky130_fd_pr__nfet_01v8 ad=4.125 pd=25.33 as=4.125 ps=25.33 w=25 l=0.8
X1 drain_right.t12 minus.t1 source.t19 a_n2524_n5888# sky130_fd_pr__nfet_01v8 ad=9.75 pd=50.78 as=4.125 ps=25.33 w=25 l=0.8
X2 source.t1 plus.t0 drain_left.t13 a_n2524_n5888# sky130_fd_pr__nfet_01v8 ad=4.125 pd=25.33 as=4.125 ps=25.33 w=25 l=0.8
X3 a_n2524_n5888# a_n2524_n5888# a_n2524_n5888# a_n2524_n5888# sky130_fd_pr__nfet_01v8 ad=9.75 pd=50.78 as=78 ps=406.24 w=25 l=0.8
X4 a_n2524_n5888# a_n2524_n5888# a_n2524_n5888# a_n2524_n5888# sky130_fd_pr__nfet_01v8 ad=9.75 pd=50.78 as=0 ps=0 w=25 l=0.8
X5 a_n2524_n5888# a_n2524_n5888# a_n2524_n5888# a_n2524_n5888# sky130_fd_pr__nfet_01v8 ad=9.75 pd=50.78 as=0 ps=0 w=25 l=0.8
X6 a_n2524_n5888# a_n2524_n5888# a_n2524_n5888# a_n2524_n5888# sky130_fd_pr__nfet_01v8 ad=9.75 pd=50.78 as=0 ps=0 w=25 l=0.8
X7 source.t15 minus.t2 drain_right.t11 a_n2524_n5888# sky130_fd_pr__nfet_01v8 ad=4.125 pd=25.33 as=4.125 ps=25.33 w=25 l=0.8
X8 source.t17 minus.t3 drain_right.t10 a_n2524_n5888# sky130_fd_pr__nfet_01v8 ad=4.125 pd=25.33 as=4.125 ps=25.33 w=25 l=0.8
X9 source.t0 plus.t1 drain_left.t12 a_n2524_n5888# sky130_fd_pr__nfet_01v8 ad=4.125 pd=25.33 as=4.125 ps=25.33 w=25 l=0.8
X10 drain_right.t9 minus.t4 source.t14 a_n2524_n5888# sky130_fd_pr__nfet_01v8 ad=4.125 pd=25.33 as=4.125 ps=25.33 w=25 l=0.8
X11 source.t3 plus.t2 drain_left.t11 a_n2524_n5888# sky130_fd_pr__nfet_01v8 ad=4.125 pd=25.33 as=4.125 ps=25.33 w=25 l=0.8
X12 source.t25 minus.t5 drain_right.t8 a_n2524_n5888# sky130_fd_pr__nfet_01v8 ad=4.125 pd=25.33 as=4.125 ps=25.33 w=25 l=0.8
X13 drain_right.t7 minus.t6 source.t24 a_n2524_n5888# sky130_fd_pr__nfet_01v8 ad=9.75 pd=50.78 as=4.125 ps=25.33 w=25 l=0.8
X14 source.t23 minus.t7 drain_right.t6 a_n2524_n5888# sky130_fd_pr__nfet_01v8 ad=4.125 pd=25.33 as=4.125 ps=25.33 w=25 l=0.8
X15 drain_left.t10 plus.t3 source.t8 a_n2524_n5888# sky130_fd_pr__nfet_01v8 ad=9.75 pd=50.78 as=4.125 ps=25.33 w=25 l=0.8
X16 drain_right.t5 minus.t8 source.t22 a_n2524_n5888# sky130_fd_pr__nfet_01v8 ad=4.125 pd=25.33 as=9.75 ps=50.78 w=25 l=0.8
X17 source.t27 minus.t9 drain_right.t4 a_n2524_n5888# sky130_fd_pr__nfet_01v8 ad=4.125 pd=25.33 as=4.125 ps=25.33 w=25 l=0.8
X18 source.t16 minus.t10 drain_right.t3 a_n2524_n5888# sky130_fd_pr__nfet_01v8 ad=4.125 pd=25.33 as=4.125 ps=25.33 w=25 l=0.8
X19 drain_right.t2 minus.t11 source.t26 a_n2524_n5888# sky130_fd_pr__nfet_01v8 ad=4.125 pd=25.33 as=4.125 ps=25.33 w=25 l=0.8
X20 drain_left.t9 plus.t4 source.t10 a_n2524_n5888# sky130_fd_pr__nfet_01v8 ad=4.125 pd=25.33 as=9.75 ps=50.78 w=25 l=0.8
X21 source.t9 plus.t5 drain_left.t8 a_n2524_n5888# sky130_fd_pr__nfet_01v8 ad=4.125 pd=25.33 as=4.125 ps=25.33 w=25 l=0.8
X22 source.t2 plus.t6 drain_left.t7 a_n2524_n5888# sky130_fd_pr__nfet_01v8 ad=4.125 pd=25.33 as=4.125 ps=25.33 w=25 l=0.8
X23 drain_left.t6 plus.t7 source.t6 a_n2524_n5888# sky130_fd_pr__nfet_01v8 ad=4.125 pd=25.33 as=4.125 ps=25.33 w=25 l=0.8
X24 drain_left.t5 plus.t8 source.t7 a_n2524_n5888# sky130_fd_pr__nfet_01v8 ad=4.125 pd=25.33 as=4.125 ps=25.33 w=25 l=0.8
X25 drain_left.t4 plus.t9 source.t11 a_n2524_n5888# sky130_fd_pr__nfet_01v8 ad=4.125 pd=25.33 as=4.125 ps=25.33 w=25 l=0.8
X26 drain_right.t1 minus.t12 source.t20 a_n2524_n5888# sky130_fd_pr__nfet_01v8 ad=4.125 pd=25.33 as=9.75 ps=50.78 w=25 l=0.8
X27 drain_left.t3 plus.t10 source.t12 a_n2524_n5888# sky130_fd_pr__nfet_01v8 ad=4.125 pd=25.33 as=4.125 ps=25.33 w=25 l=0.8
X28 source.t13 plus.t11 drain_left.t2 a_n2524_n5888# sky130_fd_pr__nfet_01v8 ad=4.125 pd=25.33 as=4.125 ps=25.33 w=25 l=0.8
X29 drain_right.t0 minus.t13 source.t18 a_n2524_n5888# sky130_fd_pr__nfet_01v8 ad=4.125 pd=25.33 as=4.125 ps=25.33 w=25 l=0.8
X30 drain_left.t1 plus.t12 source.t5 a_n2524_n5888# sky130_fd_pr__nfet_01v8 ad=9.75 pd=50.78 as=4.125 ps=25.33 w=25 l=0.8
X31 drain_left.t0 plus.t13 source.t4 a_n2524_n5888# sky130_fd_pr__nfet_01v8 ad=4.125 pd=25.33 as=9.75 ps=50.78 w=25 l=0.8
R0 minus.n5 minus.t8 826.076
R1 minus.n23 minus.t1 826.076
R2 minus.n4 minus.t5 802.23
R3 minus.n8 minus.t4 802.23
R4 minus.n9 minus.t10 802.23
R5 minus.n10 minus.t11 802.23
R6 minus.n14 minus.t9 802.23
R7 minus.n16 minus.t6 802.23
R8 minus.n22 minus.t7 802.23
R9 minus.n26 minus.t13 802.23
R10 minus.n27 minus.t3 802.23
R11 minus.n28 minus.t0 802.23
R12 minus.n32 minus.t2 802.23
R13 minus.n34 minus.t12 802.23
R14 minus.n17 minus.n16 161.3
R15 minus.n15 minus.n0 161.3
R16 minus.n14 minus.n13 161.3
R17 minus.n12 minus.n1 161.3
R18 minus.n6 minus.n3 161.3
R19 minus.n35 minus.n34 161.3
R20 minus.n33 minus.n18 161.3
R21 minus.n32 minus.n31 161.3
R22 minus.n30 minus.n19 161.3
R23 minus.n24 minus.n21 161.3
R24 minus.n11 minus.n10 80.6037
R25 minus.n9 minus.n2 80.6037
R26 minus.n8 minus.n7 80.6037
R27 minus.n29 minus.n28 80.6037
R28 minus.n27 minus.n20 80.6037
R29 minus.n26 minus.n25 80.6037
R30 minus.n36 minus.n17 48.7562
R31 minus.n9 minus.n8 48.2005
R32 minus.n10 minus.n9 48.2005
R33 minus.n27 minus.n26 48.2005
R34 minus.n28 minus.n27 48.2005
R35 minus.n6 minus.n5 44.9119
R36 minus.n24 minus.n23 44.9119
R37 minus.n16 minus.n15 35.055
R38 minus.n34 minus.n33 35.055
R39 minus.n8 minus.n3 32.1338
R40 minus.n10 minus.n1 32.1338
R41 minus.n26 minus.n21 32.1338
R42 minus.n28 minus.n19 32.1338
R43 minus.n5 minus.n4 17.739
R44 minus.n23 minus.n22 17.739
R45 minus.n4 minus.n3 16.0672
R46 minus.n14 minus.n1 16.0672
R47 minus.n22 minus.n21 16.0672
R48 minus.n32 minus.n19 16.0672
R49 minus.n15 minus.n14 13.146
R50 minus.n33 minus.n32 13.146
R51 minus.n36 minus.n35 6.72588
R52 minus.n11 minus.n2 0.380177
R53 minus.n7 minus.n2 0.380177
R54 minus.n25 minus.n20 0.380177
R55 minus.n29 minus.n20 0.380177
R56 minus.n12 minus.n11 0.285035
R57 minus.n7 minus.n6 0.285035
R58 minus.n25 minus.n24 0.285035
R59 minus.n30 minus.n29 0.285035
R60 minus.n17 minus.n0 0.189894
R61 minus.n13 minus.n0 0.189894
R62 minus.n13 minus.n12 0.189894
R63 minus.n31 minus.n30 0.189894
R64 minus.n31 minus.n18 0.189894
R65 minus.n35 minus.n18 0.189894
R66 minus minus.n36 0.188
R67 source.n578 source.n444 289.615
R68 source.n432 source.n298 289.615
R69 source.n134 source.n0 289.615
R70 source.n280 source.n146 289.615
R71 source.n488 source.n487 185
R72 source.n493 source.n492 185
R73 source.n495 source.n494 185
R74 source.n484 source.n483 185
R75 source.n501 source.n500 185
R76 source.n503 source.n502 185
R77 source.n480 source.n479 185
R78 source.n510 source.n509 185
R79 source.n511 source.n478 185
R80 source.n513 source.n512 185
R81 source.n476 source.n475 185
R82 source.n519 source.n518 185
R83 source.n521 source.n520 185
R84 source.n472 source.n471 185
R85 source.n527 source.n526 185
R86 source.n529 source.n528 185
R87 source.n468 source.n467 185
R88 source.n535 source.n534 185
R89 source.n537 source.n536 185
R90 source.n464 source.n463 185
R91 source.n543 source.n542 185
R92 source.n545 source.n544 185
R93 source.n460 source.n459 185
R94 source.n551 source.n550 185
R95 source.n554 source.n553 185
R96 source.n552 source.n456 185
R97 source.n559 source.n455 185
R98 source.n561 source.n560 185
R99 source.n563 source.n562 185
R100 source.n452 source.n451 185
R101 source.n569 source.n568 185
R102 source.n571 source.n570 185
R103 source.n448 source.n447 185
R104 source.n577 source.n576 185
R105 source.n579 source.n578 185
R106 source.n342 source.n341 185
R107 source.n347 source.n346 185
R108 source.n349 source.n348 185
R109 source.n338 source.n337 185
R110 source.n355 source.n354 185
R111 source.n357 source.n356 185
R112 source.n334 source.n333 185
R113 source.n364 source.n363 185
R114 source.n365 source.n332 185
R115 source.n367 source.n366 185
R116 source.n330 source.n329 185
R117 source.n373 source.n372 185
R118 source.n375 source.n374 185
R119 source.n326 source.n325 185
R120 source.n381 source.n380 185
R121 source.n383 source.n382 185
R122 source.n322 source.n321 185
R123 source.n389 source.n388 185
R124 source.n391 source.n390 185
R125 source.n318 source.n317 185
R126 source.n397 source.n396 185
R127 source.n399 source.n398 185
R128 source.n314 source.n313 185
R129 source.n405 source.n404 185
R130 source.n408 source.n407 185
R131 source.n406 source.n310 185
R132 source.n413 source.n309 185
R133 source.n415 source.n414 185
R134 source.n417 source.n416 185
R135 source.n306 source.n305 185
R136 source.n423 source.n422 185
R137 source.n425 source.n424 185
R138 source.n302 source.n301 185
R139 source.n431 source.n430 185
R140 source.n433 source.n432 185
R141 source.n135 source.n134 185
R142 source.n133 source.n132 185
R143 source.n4 source.n3 185
R144 source.n127 source.n126 185
R145 source.n125 source.n124 185
R146 source.n8 source.n7 185
R147 source.n119 source.n118 185
R148 source.n117 source.n116 185
R149 source.n115 source.n11 185
R150 source.n15 source.n12 185
R151 source.n110 source.n109 185
R152 source.n108 source.n107 185
R153 source.n17 source.n16 185
R154 source.n102 source.n101 185
R155 source.n100 source.n99 185
R156 source.n21 source.n20 185
R157 source.n94 source.n93 185
R158 source.n92 source.n91 185
R159 source.n25 source.n24 185
R160 source.n86 source.n85 185
R161 source.n84 source.n83 185
R162 source.n29 source.n28 185
R163 source.n78 source.n77 185
R164 source.n76 source.n75 185
R165 source.n33 source.n32 185
R166 source.n70 source.n69 185
R167 source.n68 source.n35 185
R168 source.n67 source.n66 185
R169 source.n38 source.n36 185
R170 source.n61 source.n60 185
R171 source.n59 source.n58 185
R172 source.n42 source.n41 185
R173 source.n53 source.n52 185
R174 source.n51 source.n50 185
R175 source.n46 source.n45 185
R176 source.n281 source.n280 185
R177 source.n279 source.n278 185
R178 source.n150 source.n149 185
R179 source.n273 source.n272 185
R180 source.n271 source.n270 185
R181 source.n154 source.n153 185
R182 source.n265 source.n264 185
R183 source.n263 source.n262 185
R184 source.n261 source.n157 185
R185 source.n161 source.n158 185
R186 source.n256 source.n255 185
R187 source.n254 source.n253 185
R188 source.n163 source.n162 185
R189 source.n248 source.n247 185
R190 source.n246 source.n245 185
R191 source.n167 source.n166 185
R192 source.n240 source.n239 185
R193 source.n238 source.n237 185
R194 source.n171 source.n170 185
R195 source.n232 source.n231 185
R196 source.n230 source.n229 185
R197 source.n175 source.n174 185
R198 source.n224 source.n223 185
R199 source.n222 source.n221 185
R200 source.n179 source.n178 185
R201 source.n216 source.n215 185
R202 source.n214 source.n181 185
R203 source.n213 source.n212 185
R204 source.n184 source.n182 185
R205 source.n207 source.n206 185
R206 source.n205 source.n204 185
R207 source.n188 source.n187 185
R208 source.n199 source.n198 185
R209 source.n197 source.n196 185
R210 source.n192 source.n191 185
R211 source.n489 source.t20 149.524
R212 source.n343 source.t4 149.524
R213 source.n47 source.t10 149.524
R214 source.n193 source.t22 149.524
R215 source.n493 source.n487 104.615
R216 source.n494 source.n493 104.615
R217 source.n494 source.n483 104.615
R218 source.n501 source.n483 104.615
R219 source.n502 source.n501 104.615
R220 source.n502 source.n479 104.615
R221 source.n510 source.n479 104.615
R222 source.n511 source.n510 104.615
R223 source.n512 source.n511 104.615
R224 source.n512 source.n475 104.615
R225 source.n519 source.n475 104.615
R226 source.n520 source.n519 104.615
R227 source.n520 source.n471 104.615
R228 source.n527 source.n471 104.615
R229 source.n528 source.n527 104.615
R230 source.n528 source.n467 104.615
R231 source.n535 source.n467 104.615
R232 source.n536 source.n535 104.615
R233 source.n536 source.n463 104.615
R234 source.n543 source.n463 104.615
R235 source.n544 source.n543 104.615
R236 source.n544 source.n459 104.615
R237 source.n551 source.n459 104.615
R238 source.n553 source.n551 104.615
R239 source.n553 source.n552 104.615
R240 source.n552 source.n455 104.615
R241 source.n561 source.n455 104.615
R242 source.n562 source.n561 104.615
R243 source.n562 source.n451 104.615
R244 source.n569 source.n451 104.615
R245 source.n570 source.n569 104.615
R246 source.n570 source.n447 104.615
R247 source.n577 source.n447 104.615
R248 source.n578 source.n577 104.615
R249 source.n347 source.n341 104.615
R250 source.n348 source.n347 104.615
R251 source.n348 source.n337 104.615
R252 source.n355 source.n337 104.615
R253 source.n356 source.n355 104.615
R254 source.n356 source.n333 104.615
R255 source.n364 source.n333 104.615
R256 source.n365 source.n364 104.615
R257 source.n366 source.n365 104.615
R258 source.n366 source.n329 104.615
R259 source.n373 source.n329 104.615
R260 source.n374 source.n373 104.615
R261 source.n374 source.n325 104.615
R262 source.n381 source.n325 104.615
R263 source.n382 source.n381 104.615
R264 source.n382 source.n321 104.615
R265 source.n389 source.n321 104.615
R266 source.n390 source.n389 104.615
R267 source.n390 source.n317 104.615
R268 source.n397 source.n317 104.615
R269 source.n398 source.n397 104.615
R270 source.n398 source.n313 104.615
R271 source.n405 source.n313 104.615
R272 source.n407 source.n405 104.615
R273 source.n407 source.n406 104.615
R274 source.n406 source.n309 104.615
R275 source.n415 source.n309 104.615
R276 source.n416 source.n415 104.615
R277 source.n416 source.n305 104.615
R278 source.n423 source.n305 104.615
R279 source.n424 source.n423 104.615
R280 source.n424 source.n301 104.615
R281 source.n431 source.n301 104.615
R282 source.n432 source.n431 104.615
R283 source.n134 source.n133 104.615
R284 source.n133 source.n3 104.615
R285 source.n126 source.n3 104.615
R286 source.n126 source.n125 104.615
R287 source.n125 source.n7 104.615
R288 source.n118 source.n7 104.615
R289 source.n118 source.n117 104.615
R290 source.n117 source.n11 104.615
R291 source.n15 source.n11 104.615
R292 source.n109 source.n15 104.615
R293 source.n109 source.n108 104.615
R294 source.n108 source.n16 104.615
R295 source.n101 source.n16 104.615
R296 source.n101 source.n100 104.615
R297 source.n100 source.n20 104.615
R298 source.n93 source.n20 104.615
R299 source.n93 source.n92 104.615
R300 source.n92 source.n24 104.615
R301 source.n85 source.n24 104.615
R302 source.n85 source.n84 104.615
R303 source.n84 source.n28 104.615
R304 source.n77 source.n28 104.615
R305 source.n77 source.n76 104.615
R306 source.n76 source.n32 104.615
R307 source.n69 source.n32 104.615
R308 source.n69 source.n68 104.615
R309 source.n68 source.n67 104.615
R310 source.n67 source.n36 104.615
R311 source.n60 source.n36 104.615
R312 source.n60 source.n59 104.615
R313 source.n59 source.n41 104.615
R314 source.n52 source.n41 104.615
R315 source.n52 source.n51 104.615
R316 source.n51 source.n45 104.615
R317 source.n280 source.n279 104.615
R318 source.n279 source.n149 104.615
R319 source.n272 source.n149 104.615
R320 source.n272 source.n271 104.615
R321 source.n271 source.n153 104.615
R322 source.n264 source.n153 104.615
R323 source.n264 source.n263 104.615
R324 source.n263 source.n157 104.615
R325 source.n161 source.n157 104.615
R326 source.n255 source.n161 104.615
R327 source.n255 source.n254 104.615
R328 source.n254 source.n162 104.615
R329 source.n247 source.n162 104.615
R330 source.n247 source.n246 104.615
R331 source.n246 source.n166 104.615
R332 source.n239 source.n166 104.615
R333 source.n239 source.n238 104.615
R334 source.n238 source.n170 104.615
R335 source.n231 source.n170 104.615
R336 source.n231 source.n230 104.615
R337 source.n230 source.n174 104.615
R338 source.n223 source.n174 104.615
R339 source.n223 source.n222 104.615
R340 source.n222 source.n178 104.615
R341 source.n215 source.n178 104.615
R342 source.n215 source.n214 104.615
R343 source.n214 source.n213 104.615
R344 source.n213 source.n182 104.615
R345 source.n206 source.n182 104.615
R346 source.n206 source.n205 104.615
R347 source.n205 source.n187 104.615
R348 source.n198 source.n187 104.615
R349 source.n198 source.n197 104.615
R350 source.n197 source.n191 104.615
R351 source.t20 source.n487 52.3082
R352 source.t4 source.n341 52.3082
R353 source.t10 source.n45 52.3082
R354 source.t22 source.n191 52.3082
R355 source.n443 source.n442 42.0366
R356 source.n441 source.n440 42.0366
R357 source.n439 source.n438 42.0366
R358 source.n297 source.n296 42.0366
R359 source.n295 source.n294 42.0366
R360 source.n293 source.n292 42.0366
R361 source.n141 source.n140 42.0366
R362 source.n143 source.n142 42.0366
R363 source.n145 source.n144 42.0366
R364 source.n287 source.n286 42.0366
R365 source.n289 source.n288 42.0366
R366 source.n291 source.n290 42.0366
R367 source.n293 source.n291 33.0845
R368 source.n583 source.n582 30.6338
R369 source.n437 source.n436 30.6338
R370 source.n139 source.n138 30.6338
R371 source.n285 source.n284 30.6338
R372 source.n584 source.n139 26.3603
R373 source.n513 source.n478 13.1884
R374 source.n560 source.n559 13.1884
R375 source.n367 source.n332 13.1884
R376 source.n414 source.n413 13.1884
R377 source.n116 source.n115 13.1884
R378 source.n70 source.n35 13.1884
R379 source.n262 source.n261 13.1884
R380 source.n216 source.n181 13.1884
R381 source.n509 source.n508 12.8005
R382 source.n514 source.n476 12.8005
R383 source.n558 source.n456 12.8005
R384 source.n563 source.n454 12.8005
R385 source.n363 source.n362 12.8005
R386 source.n368 source.n330 12.8005
R387 source.n412 source.n310 12.8005
R388 source.n417 source.n308 12.8005
R389 source.n119 source.n10 12.8005
R390 source.n114 source.n12 12.8005
R391 source.n71 source.n33 12.8005
R392 source.n66 source.n37 12.8005
R393 source.n265 source.n156 12.8005
R394 source.n260 source.n158 12.8005
R395 source.n217 source.n179 12.8005
R396 source.n212 source.n183 12.8005
R397 source.n507 source.n480 12.0247
R398 source.n518 source.n517 12.0247
R399 source.n555 source.n554 12.0247
R400 source.n564 source.n452 12.0247
R401 source.n361 source.n334 12.0247
R402 source.n372 source.n371 12.0247
R403 source.n409 source.n408 12.0247
R404 source.n418 source.n306 12.0247
R405 source.n120 source.n8 12.0247
R406 source.n111 source.n110 12.0247
R407 source.n75 source.n74 12.0247
R408 source.n65 source.n38 12.0247
R409 source.n266 source.n154 12.0247
R410 source.n257 source.n256 12.0247
R411 source.n221 source.n220 12.0247
R412 source.n211 source.n184 12.0247
R413 source.n504 source.n503 11.249
R414 source.n521 source.n474 11.249
R415 source.n550 source.n458 11.249
R416 source.n568 source.n567 11.249
R417 source.n358 source.n357 11.249
R418 source.n375 source.n328 11.249
R419 source.n404 source.n312 11.249
R420 source.n422 source.n421 11.249
R421 source.n124 source.n123 11.249
R422 source.n107 source.n14 11.249
R423 source.n78 source.n31 11.249
R424 source.n62 source.n61 11.249
R425 source.n270 source.n269 11.249
R426 source.n253 source.n160 11.249
R427 source.n224 source.n177 11.249
R428 source.n208 source.n207 11.249
R429 source.n500 source.n482 10.4732
R430 source.n522 source.n472 10.4732
R431 source.n549 source.n460 10.4732
R432 source.n571 source.n450 10.4732
R433 source.n354 source.n336 10.4732
R434 source.n376 source.n326 10.4732
R435 source.n403 source.n314 10.4732
R436 source.n425 source.n304 10.4732
R437 source.n127 source.n6 10.4732
R438 source.n106 source.n17 10.4732
R439 source.n79 source.n29 10.4732
R440 source.n58 source.n40 10.4732
R441 source.n273 source.n152 10.4732
R442 source.n252 source.n163 10.4732
R443 source.n225 source.n175 10.4732
R444 source.n204 source.n186 10.4732
R445 source.n489 source.n488 10.2747
R446 source.n343 source.n342 10.2747
R447 source.n47 source.n46 10.2747
R448 source.n193 source.n192 10.2747
R449 source.n499 source.n484 9.69747
R450 source.n526 source.n525 9.69747
R451 source.n546 source.n545 9.69747
R452 source.n572 source.n448 9.69747
R453 source.n353 source.n338 9.69747
R454 source.n380 source.n379 9.69747
R455 source.n400 source.n399 9.69747
R456 source.n426 source.n302 9.69747
R457 source.n128 source.n4 9.69747
R458 source.n103 source.n102 9.69747
R459 source.n83 source.n82 9.69747
R460 source.n57 source.n42 9.69747
R461 source.n274 source.n150 9.69747
R462 source.n249 source.n248 9.69747
R463 source.n229 source.n228 9.69747
R464 source.n203 source.n188 9.69747
R465 source.n582 source.n581 9.45567
R466 source.n436 source.n435 9.45567
R467 source.n138 source.n137 9.45567
R468 source.n284 source.n283 9.45567
R469 source.n446 source.n445 9.3005
R470 source.n575 source.n574 9.3005
R471 source.n573 source.n572 9.3005
R472 source.n450 source.n449 9.3005
R473 source.n567 source.n566 9.3005
R474 source.n565 source.n564 9.3005
R475 source.n454 source.n453 9.3005
R476 source.n533 source.n532 9.3005
R477 source.n531 source.n530 9.3005
R478 source.n470 source.n469 9.3005
R479 source.n525 source.n524 9.3005
R480 source.n523 source.n522 9.3005
R481 source.n474 source.n473 9.3005
R482 source.n517 source.n516 9.3005
R483 source.n515 source.n514 9.3005
R484 source.n491 source.n490 9.3005
R485 source.n486 source.n485 9.3005
R486 source.n497 source.n496 9.3005
R487 source.n499 source.n498 9.3005
R488 source.n482 source.n481 9.3005
R489 source.n505 source.n504 9.3005
R490 source.n507 source.n506 9.3005
R491 source.n508 source.n477 9.3005
R492 source.n466 source.n465 9.3005
R493 source.n539 source.n538 9.3005
R494 source.n541 source.n540 9.3005
R495 source.n462 source.n461 9.3005
R496 source.n547 source.n546 9.3005
R497 source.n549 source.n548 9.3005
R498 source.n458 source.n457 9.3005
R499 source.n556 source.n555 9.3005
R500 source.n558 source.n557 9.3005
R501 source.n581 source.n580 9.3005
R502 source.n300 source.n299 9.3005
R503 source.n429 source.n428 9.3005
R504 source.n427 source.n426 9.3005
R505 source.n304 source.n303 9.3005
R506 source.n421 source.n420 9.3005
R507 source.n419 source.n418 9.3005
R508 source.n308 source.n307 9.3005
R509 source.n387 source.n386 9.3005
R510 source.n385 source.n384 9.3005
R511 source.n324 source.n323 9.3005
R512 source.n379 source.n378 9.3005
R513 source.n377 source.n376 9.3005
R514 source.n328 source.n327 9.3005
R515 source.n371 source.n370 9.3005
R516 source.n369 source.n368 9.3005
R517 source.n345 source.n344 9.3005
R518 source.n340 source.n339 9.3005
R519 source.n351 source.n350 9.3005
R520 source.n353 source.n352 9.3005
R521 source.n336 source.n335 9.3005
R522 source.n359 source.n358 9.3005
R523 source.n361 source.n360 9.3005
R524 source.n362 source.n331 9.3005
R525 source.n320 source.n319 9.3005
R526 source.n393 source.n392 9.3005
R527 source.n395 source.n394 9.3005
R528 source.n316 source.n315 9.3005
R529 source.n401 source.n400 9.3005
R530 source.n403 source.n402 9.3005
R531 source.n312 source.n311 9.3005
R532 source.n410 source.n409 9.3005
R533 source.n412 source.n411 9.3005
R534 source.n435 source.n434 9.3005
R535 source.n49 source.n48 9.3005
R536 source.n44 source.n43 9.3005
R537 source.n55 source.n54 9.3005
R538 source.n57 source.n56 9.3005
R539 source.n40 source.n39 9.3005
R540 source.n63 source.n62 9.3005
R541 source.n65 source.n64 9.3005
R542 source.n37 source.n34 9.3005
R543 source.n96 source.n95 9.3005
R544 source.n98 source.n97 9.3005
R545 source.n19 source.n18 9.3005
R546 source.n104 source.n103 9.3005
R547 source.n106 source.n105 9.3005
R548 source.n14 source.n13 9.3005
R549 source.n112 source.n111 9.3005
R550 source.n114 source.n113 9.3005
R551 source.n137 source.n136 9.3005
R552 source.n2 source.n1 9.3005
R553 source.n131 source.n130 9.3005
R554 source.n129 source.n128 9.3005
R555 source.n6 source.n5 9.3005
R556 source.n123 source.n122 9.3005
R557 source.n121 source.n120 9.3005
R558 source.n10 source.n9 9.3005
R559 source.n23 source.n22 9.3005
R560 source.n90 source.n89 9.3005
R561 source.n88 source.n87 9.3005
R562 source.n27 source.n26 9.3005
R563 source.n82 source.n81 9.3005
R564 source.n80 source.n79 9.3005
R565 source.n31 source.n30 9.3005
R566 source.n74 source.n73 9.3005
R567 source.n72 source.n71 9.3005
R568 source.n195 source.n194 9.3005
R569 source.n190 source.n189 9.3005
R570 source.n201 source.n200 9.3005
R571 source.n203 source.n202 9.3005
R572 source.n186 source.n185 9.3005
R573 source.n209 source.n208 9.3005
R574 source.n211 source.n210 9.3005
R575 source.n183 source.n180 9.3005
R576 source.n242 source.n241 9.3005
R577 source.n244 source.n243 9.3005
R578 source.n165 source.n164 9.3005
R579 source.n250 source.n249 9.3005
R580 source.n252 source.n251 9.3005
R581 source.n160 source.n159 9.3005
R582 source.n258 source.n257 9.3005
R583 source.n260 source.n259 9.3005
R584 source.n283 source.n282 9.3005
R585 source.n148 source.n147 9.3005
R586 source.n277 source.n276 9.3005
R587 source.n275 source.n274 9.3005
R588 source.n152 source.n151 9.3005
R589 source.n269 source.n268 9.3005
R590 source.n267 source.n266 9.3005
R591 source.n156 source.n155 9.3005
R592 source.n169 source.n168 9.3005
R593 source.n236 source.n235 9.3005
R594 source.n234 source.n233 9.3005
R595 source.n173 source.n172 9.3005
R596 source.n228 source.n227 9.3005
R597 source.n226 source.n225 9.3005
R598 source.n177 source.n176 9.3005
R599 source.n220 source.n219 9.3005
R600 source.n218 source.n217 9.3005
R601 source.n496 source.n495 8.92171
R602 source.n529 source.n470 8.92171
R603 source.n542 source.n462 8.92171
R604 source.n576 source.n575 8.92171
R605 source.n350 source.n349 8.92171
R606 source.n383 source.n324 8.92171
R607 source.n396 source.n316 8.92171
R608 source.n430 source.n429 8.92171
R609 source.n132 source.n131 8.92171
R610 source.n99 source.n19 8.92171
R611 source.n86 source.n27 8.92171
R612 source.n54 source.n53 8.92171
R613 source.n278 source.n277 8.92171
R614 source.n245 source.n165 8.92171
R615 source.n232 source.n173 8.92171
R616 source.n200 source.n199 8.92171
R617 source.n492 source.n486 8.14595
R618 source.n530 source.n468 8.14595
R619 source.n541 source.n464 8.14595
R620 source.n579 source.n446 8.14595
R621 source.n346 source.n340 8.14595
R622 source.n384 source.n322 8.14595
R623 source.n395 source.n318 8.14595
R624 source.n433 source.n300 8.14595
R625 source.n135 source.n2 8.14595
R626 source.n98 source.n21 8.14595
R627 source.n87 source.n25 8.14595
R628 source.n50 source.n44 8.14595
R629 source.n281 source.n148 8.14595
R630 source.n244 source.n167 8.14595
R631 source.n233 source.n171 8.14595
R632 source.n196 source.n190 8.14595
R633 source.n491 source.n488 7.3702
R634 source.n534 source.n533 7.3702
R635 source.n538 source.n537 7.3702
R636 source.n580 source.n444 7.3702
R637 source.n345 source.n342 7.3702
R638 source.n388 source.n387 7.3702
R639 source.n392 source.n391 7.3702
R640 source.n434 source.n298 7.3702
R641 source.n136 source.n0 7.3702
R642 source.n95 source.n94 7.3702
R643 source.n91 source.n90 7.3702
R644 source.n49 source.n46 7.3702
R645 source.n282 source.n146 7.3702
R646 source.n241 source.n240 7.3702
R647 source.n237 source.n236 7.3702
R648 source.n195 source.n192 7.3702
R649 source.n534 source.n466 6.59444
R650 source.n537 source.n466 6.59444
R651 source.n582 source.n444 6.59444
R652 source.n388 source.n320 6.59444
R653 source.n391 source.n320 6.59444
R654 source.n436 source.n298 6.59444
R655 source.n138 source.n0 6.59444
R656 source.n94 source.n23 6.59444
R657 source.n91 source.n23 6.59444
R658 source.n284 source.n146 6.59444
R659 source.n240 source.n169 6.59444
R660 source.n237 source.n169 6.59444
R661 source.n492 source.n491 5.81868
R662 source.n533 source.n468 5.81868
R663 source.n538 source.n464 5.81868
R664 source.n580 source.n579 5.81868
R665 source.n346 source.n345 5.81868
R666 source.n387 source.n322 5.81868
R667 source.n392 source.n318 5.81868
R668 source.n434 source.n433 5.81868
R669 source.n136 source.n135 5.81868
R670 source.n95 source.n21 5.81868
R671 source.n90 source.n25 5.81868
R672 source.n50 source.n49 5.81868
R673 source.n282 source.n281 5.81868
R674 source.n241 source.n167 5.81868
R675 source.n236 source.n171 5.81868
R676 source.n196 source.n195 5.81868
R677 source.n584 source.n583 5.7505
R678 source.n495 source.n486 5.04292
R679 source.n530 source.n529 5.04292
R680 source.n542 source.n541 5.04292
R681 source.n576 source.n446 5.04292
R682 source.n349 source.n340 5.04292
R683 source.n384 source.n383 5.04292
R684 source.n396 source.n395 5.04292
R685 source.n430 source.n300 5.04292
R686 source.n132 source.n2 5.04292
R687 source.n99 source.n98 5.04292
R688 source.n87 source.n86 5.04292
R689 source.n53 source.n44 5.04292
R690 source.n278 source.n148 5.04292
R691 source.n245 source.n244 5.04292
R692 source.n233 source.n232 5.04292
R693 source.n199 source.n190 5.04292
R694 source.n496 source.n484 4.26717
R695 source.n526 source.n470 4.26717
R696 source.n545 source.n462 4.26717
R697 source.n575 source.n448 4.26717
R698 source.n350 source.n338 4.26717
R699 source.n380 source.n324 4.26717
R700 source.n399 source.n316 4.26717
R701 source.n429 source.n302 4.26717
R702 source.n131 source.n4 4.26717
R703 source.n102 source.n19 4.26717
R704 source.n83 source.n27 4.26717
R705 source.n54 source.n42 4.26717
R706 source.n277 source.n150 4.26717
R707 source.n248 source.n165 4.26717
R708 source.n229 source.n173 4.26717
R709 source.n200 source.n188 4.26717
R710 source.n500 source.n499 3.49141
R711 source.n525 source.n472 3.49141
R712 source.n546 source.n460 3.49141
R713 source.n572 source.n571 3.49141
R714 source.n354 source.n353 3.49141
R715 source.n379 source.n326 3.49141
R716 source.n400 source.n314 3.49141
R717 source.n426 source.n425 3.49141
R718 source.n128 source.n127 3.49141
R719 source.n103 source.n17 3.49141
R720 source.n82 source.n29 3.49141
R721 source.n58 source.n57 3.49141
R722 source.n274 source.n273 3.49141
R723 source.n249 source.n163 3.49141
R724 source.n228 source.n175 3.49141
R725 source.n204 source.n203 3.49141
R726 source.n48 source.n47 2.84303
R727 source.n194 source.n193 2.84303
R728 source.n490 source.n489 2.84303
R729 source.n344 source.n343 2.84303
R730 source.n503 source.n482 2.71565
R731 source.n522 source.n521 2.71565
R732 source.n550 source.n549 2.71565
R733 source.n568 source.n450 2.71565
R734 source.n357 source.n336 2.71565
R735 source.n376 source.n375 2.71565
R736 source.n404 source.n403 2.71565
R737 source.n422 source.n304 2.71565
R738 source.n124 source.n6 2.71565