* NGSPICE file created from diffpair589.ext - technology: sky130A

.subckt diffpair589 minus drain_right drain_left source plus
X0 drain_left.t23 plus.t0 source.t42 a_n2224_n4888# sky130_fd_pr__nfet_01v8 ad=3.3 pd=20.33 as=3.3 ps=20.33 w=20 l=0.25
X1 drain_left.t22 plus.t1 source.t41 a_n2224_n4888# sky130_fd_pr__nfet_01v8 ad=3.3 pd=20.33 as=3.3 ps=20.33 w=20 l=0.25
X2 drain_left.t21 plus.t2 source.t27 a_n2224_n4888# sky130_fd_pr__nfet_01v8 ad=3.3 pd=20.33 as=7.8 ps=40.78 w=20 l=0.25
X3 drain_right.t23 minus.t0 source.t0 a_n2224_n4888# sky130_fd_pr__nfet_01v8 ad=3.3 pd=20.33 as=3.3 ps=20.33 w=20 l=0.25
X4 drain_left.t20 plus.t3 source.t40 a_n2224_n4888# sky130_fd_pr__nfet_01v8 ad=3.3 pd=20.33 as=7.8 ps=40.78 w=20 l=0.25
X5 drain_left.t19 plus.t4 source.t34 a_n2224_n4888# sky130_fd_pr__nfet_01v8 ad=3.3 pd=20.33 as=3.3 ps=20.33 w=20 l=0.25
X6 source.t1 minus.t1 drain_right.t22 a_n2224_n4888# sky130_fd_pr__nfet_01v8 ad=3.3 pd=20.33 as=3.3 ps=20.33 w=20 l=0.25
X7 source.t5 minus.t2 drain_right.t21 a_n2224_n4888# sky130_fd_pr__nfet_01v8 ad=7.8 pd=40.78 as=3.3 ps=20.33 w=20 l=0.25
X8 drain_left.t18 plus.t5 source.t33 a_n2224_n4888# sky130_fd_pr__nfet_01v8 ad=3.3 pd=20.33 as=3.3 ps=20.33 w=20 l=0.25
X9 source.t9 minus.t3 drain_right.t20 a_n2224_n4888# sky130_fd_pr__nfet_01v8 ad=3.3 pd=20.33 as=3.3 ps=20.33 w=20 l=0.25
X10 drain_right.t19 minus.t4 source.t13 a_n2224_n4888# sky130_fd_pr__nfet_01v8 ad=3.3 pd=20.33 as=3.3 ps=20.33 w=20 l=0.25
X11 source.t32 plus.t6 drain_left.t17 a_n2224_n4888# sky130_fd_pr__nfet_01v8 ad=3.3 pd=20.33 as=3.3 ps=20.33 w=20 l=0.25
X12 a_n2224_n4888# a_n2224_n4888# a_n2224_n4888# a_n2224_n4888# sky130_fd_pr__nfet_01v8 ad=7.8 pd=40.78 as=62.4 ps=326.24 w=20 l=0.25
X13 source.t43 plus.t7 drain_left.t16 a_n2224_n4888# sky130_fd_pr__nfet_01v8 ad=7.8 pd=40.78 as=3.3 ps=20.33 w=20 l=0.25
X14 source.t6 minus.t5 drain_right.t18 a_n2224_n4888# sky130_fd_pr__nfet_01v8 ad=3.3 pd=20.33 as=3.3 ps=20.33 w=20 l=0.25
X15 drain_right.t17 minus.t6 source.t15 a_n2224_n4888# sky130_fd_pr__nfet_01v8 ad=3.3 pd=20.33 as=3.3 ps=20.33 w=20 l=0.25
X16 drain_right.t16 minus.t7 source.t7 a_n2224_n4888# sky130_fd_pr__nfet_01v8 ad=3.3 pd=20.33 as=3.3 ps=20.33 w=20 l=0.25
X17 source.t20 minus.t8 drain_right.t15 a_n2224_n4888# sky130_fd_pr__nfet_01v8 ad=3.3 pd=20.33 as=3.3 ps=20.33 w=20 l=0.25
X18 drain_left.t15 plus.t8 source.t31 a_n2224_n4888# sky130_fd_pr__nfet_01v8 ad=3.3 pd=20.33 as=3.3 ps=20.33 w=20 l=0.25
X19 a_n2224_n4888# a_n2224_n4888# a_n2224_n4888# a_n2224_n4888# sky130_fd_pr__nfet_01v8 ad=7.8 pd=40.78 as=0 ps=0 w=20 l=0.25
X20 source.t23 minus.t9 drain_right.t14 a_n2224_n4888# sky130_fd_pr__nfet_01v8 ad=3.3 pd=20.33 as=3.3 ps=20.33 w=20 l=0.25
X21 source.t14 minus.t10 drain_right.t13 a_n2224_n4888# sky130_fd_pr__nfet_01v8 ad=3.3 pd=20.33 as=3.3 ps=20.33 w=20 l=0.25
X22 source.t26 plus.t9 drain_left.t14 a_n2224_n4888# sky130_fd_pr__nfet_01v8 ad=3.3 pd=20.33 as=3.3 ps=20.33 w=20 l=0.25
X23 source.t30 plus.t10 drain_left.t13 a_n2224_n4888# sky130_fd_pr__nfet_01v8 ad=3.3 pd=20.33 as=3.3 ps=20.33 w=20 l=0.25
X24 source.t29 plus.t11 drain_left.t12 a_n2224_n4888# sky130_fd_pr__nfet_01v8 ad=3.3 pd=20.33 as=3.3 ps=20.33 w=20 l=0.25
X25 source.t44 plus.t12 drain_left.t11 a_n2224_n4888# sky130_fd_pr__nfet_01v8 ad=3.3 pd=20.33 as=3.3 ps=20.33 w=20 l=0.25
X26 drain_left.t10 plus.t13 source.t46 a_n2224_n4888# sky130_fd_pr__nfet_01v8 ad=3.3 pd=20.33 as=3.3 ps=20.33 w=20 l=0.25
X27 source.t45 plus.t14 drain_left.t9 a_n2224_n4888# sky130_fd_pr__nfet_01v8 ad=7.8 pd=40.78 as=3.3 ps=20.33 w=20 l=0.25
X28 source.t47 plus.t15 drain_left.t8 a_n2224_n4888# sky130_fd_pr__nfet_01v8 ad=3.3 pd=20.33 as=3.3 ps=20.33 w=20 l=0.25
X29 drain_right.t12 minus.t11 source.t2 a_n2224_n4888# sky130_fd_pr__nfet_01v8 ad=3.3 pd=20.33 as=3.3 ps=20.33 w=20 l=0.25
X30 source.t28 plus.t16 drain_left.t7 a_n2224_n4888# sky130_fd_pr__nfet_01v8 ad=3.3 pd=20.33 as=3.3 ps=20.33 w=20 l=0.25
X31 drain_right.t11 minus.t12 source.t4 a_n2224_n4888# sky130_fd_pr__nfet_01v8 ad=3.3 pd=20.33 as=7.8 ps=40.78 w=20 l=0.25
X32 source.t10 minus.t13 drain_right.t10 a_n2224_n4888# sky130_fd_pr__nfet_01v8 ad=7.8 pd=40.78 as=3.3 ps=20.33 w=20 l=0.25
X33 a_n2224_n4888# a_n2224_n4888# a_n2224_n4888# a_n2224_n4888# sky130_fd_pr__nfet_01v8 ad=7.8 pd=40.78 as=0 ps=0 w=20 l=0.25
X34 a_n2224_n4888# a_n2224_n4888# a_n2224_n4888# a_n2224_n4888# sky130_fd_pr__nfet_01v8 ad=7.8 pd=40.78 as=0 ps=0 w=20 l=0.25
X35 source.t17 minus.t14 drain_right.t9 a_n2224_n4888# sky130_fd_pr__nfet_01v8 ad=3.3 pd=20.33 as=3.3 ps=20.33 w=20 l=0.25
X36 drain_left.t6 plus.t17 source.t38 a_n2224_n4888# sky130_fd_pr__nfet_01v8 ad=3.3 pd=20.33 as=3.3 ps=20.33 w=20 l=0.25
X37 source.t37 plus.t18 drain_left.t5 a_n2224_n4888# sky130_fd_pr__nfet_01v8 ad=3.3 pd=20.33 as=3.3 ps=20.33 w=20 l=0.25
X38 drain_right.t8 minus.t15 source.t22 a_n2224_n4888# sky130_fd_pr__nfet_01v8 ad=3.3 pd=20.33 as=3.3 ps=20.33 w=20 l=0.25
X39 drain_right.t7 minus.t16 source.t3 a_n2224_n4888# sky130_fd_pr__nfet_01v8 ad=3.3 pd=20.33 as=7.8 ps=40.78 w=20 l=0.25
X40 drain_left.t4 plus.t19 source.t36 a_n2224_n4888# sky130_fd_pr__nfet_01v8 ad=3.3 pd=20.33 as=3.3 ps=20.33 w=20 l=0.25
X41 drain_right.t6 minus.t17 source.t8 a_n2224_n4888# sky130_fd_pr__nfet_01v8 ad=3.3 pd=20.33 as=3.3 ps=20.33 w=20 l=0.25
X42 drain_right.t5 minus.t18 source.t11 a_n2224_n4888# sky130_fd_pr__nfet_01v8 ad=3.3 pd=20.33 as=3.3 ps=20.33 w=20 l=0.25
X43 drain_right.t4 minus.t19 source.t16 a_n2224_n4888# sky130_fd_pr__nfet_01v8 ad=3.3 pd=20.33 as=3.3 ps=20.33 w=20 l=0.25
X44 drain_right.t3 minus.t20 source.t21 a_n2224_n4888# sky130_fd_pr__nfet_01v8 ad=3.3 pd=20.33 as=3.3 ps=20.33 w=20 l=0.25
X45 source.t35 plus.t20 drain_left.t3 a_n2224_n4888# sky130_fd_pr__nfet_01v8 ad=3.3 pd=20.33 as=3.3 ps=20.33 w=20 l=0.25
X46 drain_left.t2 plus.t21 source.t25 a_n2224_n4888# sky130_fd_pr__nfet_01v8 ad=3.3 pd=20.33 as=3.3 ps=20.33 w=20 l=0.25
X47 source.t12 minus.t21 drain_right.t2 a_n2224_n4888# sky130_fd_pr__nfet_01v8 ad=3.3 pd=20.33 as=3.3 ps=20.33 w=20 l=0.25
X48 source.t19 minus.t22 drain_right.t1 a_n2224_n4888# sky130_fd_pr__nfet_01v8 ad=3.3 pd=20.33 as=3.3 ps=20.33 w=20 l=0.25
X49 drain_left.t1 plus.t22 source.t39 a_n2224_n4888# sky130_fd_pr__nfet_01v8 ad=3.3 pd=20.33 as=3.3 ps=20.33 w=20 l=0.25
X50 source.t18 minus.t23 drain_right.t0 a_n2224_n4888# sky130_fd_pr__nfet_01v8 ad=3.3 pd=20.33 as=3.3 ps=20.33 w=20 l=0.25
X51 source.t24 plus.t23 drain_left.t0 a_n2224_n4888# sky130_fd_pr__nfet_01v8 ad=3.3 pd=20.33 as=3.3 ps=20.33 w=20 l=0.25
R0 plus.n6 plus.t7 2081.07
R1 plus.n33 plus.t3 2081.07
R2 plus.n42 plus.t2 2081.07
R3 plus.n68 plus.t14 2081.07
R4 plus.n7 plus.t1 2053.32
R5 plus.n8 plus.t12 2053.32
R6 plus.n14 plus.t0 2053.32
R7 plus.n16 plus.t11 2053.32
R8 plus.n3 plus.t22 2053.32
R9 plus.n21 plus.t10 2053.32
R10 plus.n23 plus.t5 2053.32
R11 plus.n24 plus.t16 2053.32
R12 plus.n30 plus.t4 2053.32
R13 plus.n32 plus.t15 2053.32
R14 plus.n44 plus.t20 2053.32
R15 plus.n43 plus.t13 2053.32
R16 plus.n50 plus.t6 2053.32
R17 plus.n52 plus.t8 2053.32
R18 plus.n39 plus.t23 2053.32
R19 plus.n57 plus.t19 2053.32
R20 plus.n59 plus.t9 2053.32
R21 plus.n38 plus.t21 2053.32
R22 plus.n65 plus.t18 2053.32
R23 plus.n67 plus.t17 2053.32
R24 plus.n10 plus.n6 161.489
R25 plus.n46 plus.n42 161.489
R26 plus.n10 plus.n9 161.3
R27 plus.n11 plus.n5 161.3
R28 plus.n13 plus.n12 161.3
R29 plus.n15 plus.n4 161.3
R30 plus.n18 plus.n17 161.3
R31 plus.n20 plus.n19 161.3
R32 plus.n22 plus.n2 161.3
R33 plus.n26 plus.n25 161.3
R34 plus.n27 plus.n1 161.3
R35 plus.n29 plus.n28 161.3
R36 plus.n31 plus.n0 161.3
R37 plus.n34 plus.n33 161.3
R38 plus.n46 plus.n45 161.3
R39 plus.n47 plus.n41 161.3
R40 plus.n49 plus.n48 161.3
R41 plus.n51 plus.n40 161.3
R42 plus.n54 plus.n53 161.3
R43 plus.n56 plus.n55 161.3
R44 plus.n58 plus.n37 161.3
R45 plus.n61 plus.n60 161.3
R46 plus.n62 plus.n36 161.3
R47 plus.n64 plus.n63 161.3
R48 plus.n66 plus.n35 161.3
R49 plus.n69 plus.n68 161.3
R50 plus.n13 plus.n5 73.0308
R51 plus.n29 plus.n1 73.0308
R52 plus.n64 plus.n36 73.0308
R53 plus.n49 plus.n41 73.0308
R54 plus.n9 plus.n8 68.649
R55 plus.n31 plus.n30 68.649
R56 plus.n66 plus.n65 68.649
R57 plus.n45 plus.n43 68.649
R58 plus.n15 plus.n14 65.7278
R59 plus.n25 plus.n24 65.7278
R60 plus.n60 plus.n38 65.7278
R61 plus.n51 plus.n50 65.7278
R62 plus.n7 plus.n6 56.9641
R63 plus.n33 plus.n32 56.9641
R64 plus.n68 plus.n67 56.9641
R65 plus.n44 plus.n42 56.9641
R66 plus.n17 plus.n16 54.0429
R67 plus.n23 plus.n22 54.0429
R68 plus.n59 plus.n58 54.0429
R69 plus.n53 plus.n52 54.0429
R70 plus.n20 plus.n3 42.3581
R71 plus.n21 plus.n20 42.3581
R72 plus.n57 plus.n56 42.3581
R73 plus.n56 plus.n39 42.3581
R74 plus plus.n69 34.3892
R75 plus.n17 plus.n3 30.6732
R76 plus.n22 plus.n21 30.6732
R77 plus.n58 plus.n57 30.6732
R78 plus.n53 plus.n39 30.6732
R79 plus.n16 plus.n15 18.9884
R80 plus.n25 plus.n23 18.9884
R81 plus.n60 plus.n59 18.9884
R82 plus.n52 plus.n51 18.9884
R83 plus.n9 plus.n7 16.0672
R84 plus.n32 plus.n31 16.0672
R85 plus.n67 plus.n66 16.0672
R86 plus.n45 plus.n44 16.0672
R87 plus plus.n34 15.1066
R88 plus.n14 plus.n13 7.30353
R89 plus.n24 plus.n1 7.30353
R90 plus.n38 plus.n36 7.30353
R91 plus.n50 plus.n49 7.30353
R92 plus.n8 plus.n5 4.38232
R93 plus.n30 plus.n29 4.38232
R94 plus.n65 plus.n64 4.38232
R95 plus.n43 plus.n41 4.38232
R96 plus.n11 plus.n10 0.189894
R97 plus.n12 plus.n11 0.189894
R98 plus.n12 plus.n4 0.189894
R99 plus.n18 plus.n4 0.189894
R100 plus.n19 plus.n18 0.189894
R101 plus.n19 plus.n2 0.189894
R102 plus.n26 plus.n2 0.189894
R103 plus.n27 plus.n26 0.189894
R104 plus.n28 plus.n27 0.189894
R105 plus.n28 plus.n0 0.189894
R106 plus.n34 plus.n0 0.189894
R107 plus.n69 plus.n35 0.189894
R108 plus.n63 plus.n35 0.189894
R109 plus.n63 plus.n62 0.189894
R110 plus.n62 plus.n61 0.189894
R111 plus.n61 plus.n37 0.189894
R112 plus.n55 plus.n37 0.189894
R113 plus.n55 plus.n54 0.189894
R114 plus.n54 plus.n40 0.189894
R115 plus.n48 plus.n40 0.189894
R116 plus.n48 plus.n47 0.189894
R117 plus.n47 plus.n46 0.189894
R118 source.n0 source.t40 44.1297
R119 source.n11 source.t43 44.1296
R120 source.n12 source.t4 44.1296
R121 source.n23 source.t10 44.1296
R122 source.n47 source.t3 44.1295
R123 source.n36 source.t5 44.1295
R124 source.n35 source.t27 44.1295
R125 source.n24 source.t45 44.1295
R126 source.n2 source.n1 43.1397
R127 source.n4 source.n3 43.1397
R128 source.n6 source.n5 43.1397
R129 source.n8 source.n7 43.1397
R130 source.n10 source.n9 43.1397
R131 source.n14 source.n13 43.1397
R132 source.n16 source.n15 43.1397
R133 source.n18 source.n17 43.1397
R134 source.n20 source.n19 43.1397
R135 source.n22 source.n21 43.1397
R136 source.n46 source.n45 43.1396
R137 source.n44 source.n43 43.1396
R138 source.n42 source.n41 43.1396
R139 source.n40 source.n39 43.1396
R140 source.n38 source.n37 43.1396
R141 source.n34 source.n33 43.1396
R142 source.n32 source.n31 43.1396
R143 source.n30 source.n29 43.1396
R144 source.n28 source.n27 43.1396
R145 source.n26 source.n25 43.1396
R146 source.n24 source.n23 27.8483
R147 source.n48 source.n0 22.3354
R148 source.n48 source.n47 5.51343
R149 source.n45 source.t15 0.9905
R150 source.n45 source.t18 0.9905
R151 source.n43 source.t16 0.9905
R152 source.n43 source.t17 0.9905
R153 source.n41 source.t0 0.9905
R154 source.n41 source.t12 0.9905
R155 source.n39 source.t22 0.9905
R156 source.n39 source.t14 0.9905
R157 source.n37 source.t7 0.9905
R158 source.n37 source.t19 0.9905
R159 source.n33 source.t46 0.9905
R160 source.n33 source.t35 0.9905
R161 source.n31 source.t31 0.9905
R162 source.n31 source.t32 0.9905
R163 source.n29 source.t36 0.9905
R164 source.n29 source.t24 0.9905
R165 source.n27 source.t25 0.9905
R166 source.n27 source.t26 0.9905
R167 source.n25 source.t38 0.9905
R168 source.n25 source.t37 0.9905
R169 source.n1 source.t34 0.9905
R170 source.n1 source.t47 0.9905
R171 source.n3 source.t33 0.9905
R172 source.n3 source.t28 0.9905
R173 source.n5 source.t39 0.9905
R174 source.n5 source.t30 0.9905
R175 source.n7 source.t42 0.9905
R176 source.n7 source.t29 0.9905
R177 source.n9 source.t41 0.9905
R178 source.n9 source.t44 0.9905
R179 source.n13 source.t2 0.9905
R180 source.n13 source.t9 0.9905
R181 source.n15 source.t8 0.9905
R182 source.n15 source.t1 0.9905
R183 source.n17 source.t11 0.9905
R184 source.n17 source.t20 0.9905
R185 source.n19 source.t21 0.9905
R186 source.n19 source.t6 0.9905
R187 source.n21 source.t13 0.9905
R188 source.n21 source.t23 0.9905
R189 source.n23 source.n22 0.5005
R190 source.n22 source.n20 0.5005
R191 source.n20 source.n18 0.5005
R192 source.n18 source.n16 0.5005
R193 source.n16 source.n14 0.5005
R194 source.n14 source.n12 0.5005
R195 source.n11 source.n10 0.5005
R196 source.n10 source.n8 0.5005
R197 source.n8 source.n6 0.5005
R198 source.n6 source.n4 0.5005
R199 source.n4 source.n2 0.5005
R200 source.n2 source.n0 0.5005
R201 source.n26 source.n24 0.5005
R202 source.n28 source.n26 0.5005
R203 source.n30 source.n28 0.5005
R204 source.n32 source.n30 0.5005
R205 source.n34 source.n32 0.5005
R206 source.n35 source.n34 0.5005
R207 source.n38 source.n36 0.5005
R208 source.n40 source.n38 0.5005
R209 source.n42 source.n40 0.5005
R210 source.n44 source.n42 0.5005
R211 source.n46 source.n44 0.5005
R212 source.n47 source.n46 0.5005
R213 source.n12 source.n11 0.470328
R214 source.n36 source.n35 0.470328
R215 source source.n48 0.188
R216 drain_left.n13 drain_left.n11 60.3185
R217 drain_left.n7 drain_left.n5 60.3184
R218 drain_left.n2 drain_left.n0 60.3184
R219 drain_left.n21 drain_left.n20 59.8185
R220 drain_left.n19 drain_left.n18 59.8185
R221 drain_left.n17 drain_left.n16 59.8185
R222 drain_left.n15 drain_left.n14 59.8185
R223 drain_left.n13 drain_left.n12 59.8185
R224 drain_left.n7 drain_left.n6 59.8184
R225 drain_left.n9 drain_left.n8 59.8184
R226 drain_left.n4 drain_left.n3 59.8184
R227 drain_left.n2 drain_left.n1 59.8184
R228 drain_left drain_left.n10 38.1777
R229 drain_left drain_left.n21 6.15322
R230 drain_left.n5 drain_left.t3 0.9905
R231 drain_left.n5 drain_left.t21 0.9905
R232 drain_left.n6 drain_left.t17 0.9905
R233 drain_left.n6 drain_left.t10 0.9905
R234 drain_left.n8 drain_left.t0 0.9905
R235 drain_left.n8 drain_left.t15 0.9905
R236 drain_left.n3 drain_left.t14 0.9905
R237 drain_left.n3 drain_left.t4 0.9905
R238 drain_left.n1 drain_left.t5 0.9905
R239 drain_left.n1 drain_left.t2 0.9905
R240 drain_left.n0 drain_left.t9 0.9905
R241 drain_left.n0 drain_left.t6 0.9905
R242 drain_left.n20 drain_left.t8 0.9905
R243 drain_left.n20 drain_left.t20 0.9905
R244 drain_left.n18 drain_left.t7 0.9905
R245 drain_left.n18 drain_left.t19 0.9905
R246 drain_left.n16 drain_left.t13 0.9905
R247 drain_left.n16 drain_left.t18 0.9905
R248 drain_left.n14 drain_left.t12 0.9905
R249 drain_left.n14 drain_left.t1 0.9905
R250 drain_left.n12 drain_left.t11 0.9905
R251 drain_left.n12 drain_left.t23 0.9905
R252 drain_left.n11 drain_left.t16 0.9905
R253 drain_left.n11 drain_left.t22 0.9905
R254 drain_left.n9 drain_left.n7 0.5005
R255 drain_left.n4 drain_left.n2 0.5005
R256 drain_left.n15 drain_left.n13 0.5005
R257 drain_left.n17 drain_left.n15 0.5005
R258 drain_left.n19 drain_left.n17 0.5005
R259 drain_left.n21 drain_left.n19 0.5005
R260 drain_left.n10 drain_left.n9 0.195154
R261 drain_left.n10 drain_left.n4 0.195154
R262 minus.n33 minus.t13 2081.07
R263 minus.n7 minus.t12 2081.07
R264 minus.n68 minus.t16 2081.07
R265 minus.n41 minus.t2 2081.07
R266 minus.n32 minus.t4 2053.32
R267 minus.n30 minus.t9 2053.32
R268 minus.n3 minus.t20 2053.32
R269 minus.n24 minus.t5 2053.32
R270 minus.n22 minus.t18 2053.32
R271 minus.n4 minus.t8 2053.32
R272 minus.n17 minus.t17 2053.32
R273 minus.n15 minus.t1 2053.32
R274 minus.n8 minus.t11 2053.32
R275 minus.n9 minus.t3 2053.32
R276 minus.n67 minus.t23 2053.32
R277 minus.n65 minus.t6 2053.32
R278 minus.n59 minus.t14 2053.32
R279 minus.n58 minus.t19 2053.32
R280 minus.n56 minus.t21 2053.32
R281 minus.n38 minus.t0 2053.32
R282 minus.n51 minus.t10 2053.32
R283 minus.n49 minus.t15 2053.32
R284 minus.n43 minus.t22 2053.32
R285 minus.n42 minus.t7 2053.32
R286 minus.n11 minus.n7 161.489
R287 minus.n45 minus.n41 161.489
R288 minus.n34 minus.n33 161.3
R289 minus.n31 minus.n0 161.3
R290 minus.n29 minus.n28 161.3
R291 minus.n27 minus.n1 161.3
R292 minus.n26 minus.n25 161.3
R293 minus.n23 minus.n2 161.3
R294 minus.n21 minus.n20 161.3
R295 minus.n19 minus.n18 161.3
R296 minus.n16 minus.n5 161.3
R297 minus.n14 minus.n13 161.3
R298 minus.n12 minus.n6 161.3
R299 minus.n11 minus.n10 161.3
R300 minus.n69 minus.n68 161.3
R301 minus.n66 minus.n35 161.3
R302 minus.n64 minus.n63 161.3
R303 minus.n62 minus.n36 161.3
R304 minus.n61 minus.n60 161.3
R305 minus.n57 minus.n37 161.3
R306 minus.n55 minus.n54 161.3
R307 minus.n53 minus.n52 161.3
R308 minus.n50 minus.n39 161.3
R309 minus.n48 minus.n47 161.3
R310 minus.n46 minus.n40 161.3
R311 minus.n45 minus.n44 161.3
R312 minus.n29 minus.n1 73.0308
R313 minus.n14 minus.n6 73.0308
R314 minus.n48 minus.n40 73.0308
R315 minus.n64 minus.n36 73.0308
R316 minus.n31 minus.n30 68.649
R317 minus.n10 minus.n8 68.649
R318 minus.n44 minus.n43 68.649
R319 minus.n66 minus.n65 68.649
R320 minus.n25 minus.n3 65.7278
R321 minus.n16 minus.n15 65.7278
R322 minus.n50 minus.n49 65.7278
R323 minus.n60 minus.n59 65.7278
R324 minus.n33 minus.n32 56.9641
R325 minus.n9 minus.n7 56.9641
R326 minus.n42 minus.n41 56.9641
R327 minus.n68 minus.n67 56.9641
R328 minus.n24 minus.n23 54.0429
R329 minus.n18 minus.n17 54.0429
R330 minus.n52 minus.n51 54.0429
R331 minus.n58 minus.n57 54.0429
R332 minus.n70 minus.n34 43.5384
R333 minus.n22 minus.n21 42.3581
R334 minus.n21 minus.n4 42.3581
R335 minus.n55 minus.n38 42.3581
R336 minus.n56 minus.n55 42.3581
R337 minus.n23 minus.n22 30.6732
R338 minus.n18 minus.n4 30.6732
R339 minus.n52 minus.n38 30.6732
R340 minus.n57 minus.n56 30.6732
R341 minus.n25 minus.n24 18.9884
R342 minus.n17 minus.n16 18.9884
R343 minus.n51 minus.n50 18.9884
R344 minus.n60 minus.n58 18.9884
R345 minus.n32 minus.n31 16.0672
R346 minus.n10 minus.n9 16.0672
R347 minus.n44 minus.n42 16.0672
R348 minus.n67 minus.n66 16.0672
R349 minus.n3 minus.n1 7.30353
R350 minus.n15 minus.n14 7.30353
R351 minus.n49 minus.n48 7.30353
R352 minus.n59 minus.n36 7.30353
R353 minus.n70 minus.n69 6.43232
R354 minus.n30 minus.n29 4.38232
R355 minus.n8 minus.n6 4.38232
R356 minus.n43 minus.n40 4.38232
R357 minus.n65 minus.n64 4.38232
R358 minus.n34 minus.n0 0.189894
R359 minus.n28 minus.n0 0.189894
R360 minus.n28 minus.n27 0.189894
R361 minus.n27 minus.n26 0.189894
R362 minus.n26 minus.n2 0.189894
R363 minus.n20 minus.n2 0.189894
R364 minus.n20 minus.n19 0.189894
R365 minus.n19 minus.n5 0.189894
R366 minus.n13 minus.n5 0.189894
R367 minus.n13 minus.n12 0.189894
R368 minus.n12 minus.n11 0.189894
R369 minus.n46 minus.n45 0.189894
R370 minus.n47 minus.n46 0.189894
R371 minus.n47 minus.n39 0.189894
R372 minus.n53 minus.n39 0.189894
R373 minus.n54 minus.n53 0.189894
R374 minus.n54 minus.n37 0.189894
R375 minus.n61 minus.n37 0.189894
R376 minus.n62 minus.n61 0.189894
R377 minus.n63 minus.n62 0.189894
R378 minus.n63 minus.n35 0.189894
R379 minus.n69 minus.n35 0.189894
R380 minus minus.n70 0.188
R381 drain_right.n13 drain_right.n11 60.3185
R382 drain_right.n7 drain_right.n5 60.3184
R383 drain_right.n2 drain_right.n0 60.3184
R384 drain_right.n13 drain_right.n12 59.8185
R385 drain_right.n15 drain_right.n14 59.8185
R386 drain_right.n17 drain_right.n16 59.8185
R387 drain_right.n19 drain_right.n18 59.8185
R388 drain_right.n21 drain_right.n20 59.8185
R389 drain_right.n7 drain_right.n6 59.8184
R390 drain_right.n9 drain_right.n8 59.8184
R391 drain_right.n4 drain_right.n3 59.8184
R392 drain_right.n2 drain_right.n1 59.8184
R393 drain_right drain_right.n10 37.6245
R394 drain_right drain_right.n21 6.15322
R395 drain_right.n5 drain_right.t0 0.9905
R396 drain_right.n5 drain_right.t7 0.9905
R397 drain_right.n6 drain_right.t9 0.9905
R398 drain_right.n6 drain_right.t17 0.9905
R399 drain_right.n8 drain_right.t2 0.9905
R400 drain_right.n8 drain_right.t4 0.9905
R401 drain_right.n3 drain_right.t13 0.9905
R402 drain_right.n3 drain_right.t23 0.9905
R403 drain_right.n1 drain_right.t1 0.9905
R404 drain_right.n1 drain_right.t8 0.9905
R405 drain_right.n0 drain_right.t21 0.9905
R406 drain_right.n0 drain_right.t16 0.9905
R407 drain_right.n11 drain_right.t20 0.9905
R408 drain_right.n11 drain_right.t11 0.9905
R409 drain_right.n12 drain_right.t22 0.9905
R410 drain_right.n12 drain_right.t12 0.9905
R411 drain_right.n14 drain_right.t15 0.9905
R412 drain_right.n14 drain_right.t6 0.9905
R413 drain_right.n16 drain_right.t18 0.9905
R414 drain_right.n16 drain_right.t5 0.9905
R415 drain_right.n18 drain_right.t14 0.9905
R416 drain_right.n18 drain_right.t3 0.9905
R417 drain_right.n20 drain_right.t10 0.9905
R418 drain_right.n20 drain_right.t19 0.9905
R419 drain_right.n9 drain_right.n7 0.5005
R420 drain_right.n4 drain_right.n2 0.5005
R421 drain_right.n21 drain_right.n19 0.5005
R422 drain_right.n19 drain_right.n17 0.5005
R423 drain_right.n17 drain_right.n15 0.5005
R424 drain_right.n15 drain_right.n13 0.5005
R425 drain_right.n10 drain_right.n9 0.195154
R426 drain_right.n10 drain_right.n4 0.195154
C0 drain_left minus 0.172313f
C1 plus minus 7.41562f
C2 plus drain_left 12.0415f
C3 drain_right minus 11.8228f
C4 source minus 11.2334f
C5 drain_left drain_right 1.19771f
C6 plus drain_right 0.374075f
C7 drain_left source 78.4279f
C8 plus source 11.247499f
C9 drain_right source 78.4284f
C10 drain_right a_n2224_n4888# 9.14771f
C11 drain_left a_n2224_n4888# 9.48574f
C12 source a_n2224_n4888# 13.073165f
C13 minus a_n2224_n4888# 9.261213f
C14 plus a_n2224_n4888# 11.846689f
C15 drain_right.t21 a_n2224_n4888# 0.578849f
C16 drain_right.t16 a_n2224_n4888# 0.578849f
C17 drain_right.n0 a_n2224_n4888# 5.29563f
C18 drain_right.t1 a_n2224_n4888# 0.578849f
C19 drain_right.t8 a_n2224_n4888# 0.578849f
C20 drain_right.n1 a_n2224_n4888# 5.29197f
C21 drain_right.n2 a_n2224_n4888# 0.86525f
C22 drain_right.t13 a_n2224_n4888# 0.578849f
C23 drain_right.t23 a_n2224_n4888# 0.578849f
C24 drain_right.n3 a_n2224_n4888# 5.29197f
C25 drain_right.n4 a_n2224_n4888# 0.395407f
C26 drain_right.t0 a_n2224_n4888# 0.578849f
C27 drain_right.t7 a_n2224_n4888# 0.578849f
C28 drain_right.n5 a_n2224_n4888# 5.29563f
C29 drain_right.t9 a_n2224_n4888# 0.578849f
C30 drain_right.t17 a_n2224_n4888# 0.578849f
C31 drain_right.n6 a_n2224_n4888# 5.29197f
C32 drain_right.n7 a_n2224_n4888# 0.86525f
C33 drain_right.t2 a_n2224_n4888# 0.578849f
C34 drain_right.t4 a_n2224_n4888# 0.578849f
C35 drain_right.n8 a_n2224_n4888# 5.29197f
C36 drain_right.n9 a_n2224_n4888# 0.395407f
C37 drain_right.n10 a_n2224_n4888# 2.57671f
C38 drain_right.t20 a_n2224_n4888# 0.578849f
C39 drain_right.t11 a_n2224_n4888# 0.578849f
C40 drain_right.n11 a_n2224_n4888# 5.29562f
C41 drain_right.t22 a_n2224_n4888# 0.578849f
C42 drain_right.t12 a_n2224_n4888# 0.578849f
C43 drain_right.n12 a_n2224_n4888# 5.29196f
C44 drain_right.n13 a_n2224_n4888# 0.865265f
C45 drain_right.t15 a_n2224_n4888# 0.578849f
C46 drain_right.t6 a_n2224_n4888# 0.578849f
C47 drain_right.n14 a_n2224_n4888# 5.29196f
C48 drain_right.n15 a_n2224_n4888# 0.427088f
C49 drain_right.t18 a_n2224_n4888# 0.578849f
C50 drain_right.t5 a_n2224_n4888# 0.578849f
C51 drain_right.n16 a_n2224_n4888# 5.29196f
C52 drain_right.n17 a_n2224_n4888# 0.427088f
C53 drain_right.t14 a_n2224_n4888# 0.578849f
C54 drain_right.t3 a_n2224_n4888# 0.578849f
C55 drain_right.n18 a_n2224_n4888# 5.29196f
C56 drain_right.n19 a_n2224_n4888# 0.427088f
C57 drain_right.t10 a_n2224_n4888# 0.578849f
C58 drain_right.t19 a_n2224_n4888# 0.578849f
C59 drain_right.n20 a_n2224_n4888# 5.29196f
C60 drain_right.n21 a_n2224_n4888# 0.729405f
C61 minus.n0 a_n2224_n4888# 0.05003f
C62 minus.t13 a_n2224_n4888# 0.70804f
C63 minus.t4 a_n2224_n4888# 0.70454f
C64 minus.t9 a_n2224_n4888# 0.70454f
C65 minus.n1 a_n2224_n4888# 0.018139f
C66 minus.n2 a_n2224_n4888# 0.05003f
C67 minus.t20 a_n2224_n4888# 0.70454f
C68 minus.n3 a_n2224_n4888# 0.26429f
C69 minus.t5 a_n2224_n4888# 0.70454f
C70 minus.t18 a_n2224_n4888# 0.70454f
C71 minus.t8 a_n2224_n4888# 0.70454f
C72 minus.n4 a_n2224_n4888# 0.26429f
C73 minus.n5 a_n2224_n4888# 0.05003f
C74 minus.t17 a_n2224_n4888# 0.70454f
C75 minus.t1 a_n2224_n4888# 0.70454f
C76 minus.n6 a_n2224_n4888# 0.017522f
C77 minus.t12 a_n2224_n4888# 0.70804f
C78 minus.n7 a_n2224_n4888# 0.278067f
C79 minus.t11 a_n2224_n4888# 0.70454f
C80 minus.n8 a_n2224_n4888# 0.26429f
C81 minus.t3 a_n2224_n4888# 0.70454f
C82 minus.n9 a_n2224_n4888# 0.26429f
C83 minus.n10 a_n2224_n4888# 0.019064f
C84 minus.n11 a_n2224_n4888# 0.104006f
C85 minus.n12 a_n2224_n4888# 0.05003f
C86 minus.n13 a_n2224_n4888# 0.05003f
C87 minus.n14 a_n2224_n4888# 0.018139f
C88 minus.n15 a_n2224_n4888# 0.26429f
C89 minus.n16 a_n2224_n4888# 0.019064f
C90 minus.n17 a_n2224_n4888# 0.26429f
C91 minus.n18 a_n2224_n4888# 0.019064f
C92 minus.n19 a_n2224_n4888# 0.05003f
C93 minus.n20 a_n2224_n4888# 0.05003f
C94 minus.n21 a_n2224_n4888# 0.019064f
C95 minus.n22 a_n2224_n4888# 0.26429f
C96 minus.n23 a_n2224_n4888# 0.019064f
C97 minus.n24 a_n2224_n4888# 0.26429f
C98 minus.n25 a_n2224_n4888# 0.019064f
C99 minus.n26 a_n2224_n4888# 0.05003f
C100 minus.n27 a_n2224_n4888# 0.05003f
C101 minus.n28 a_n2224_n4888# 0.05003f
C102 minus.n29 a_n2224_n4888# 0.017522f
C103 minus.n30 a_n2224_n4888# 0.26429f
C104 minus.n31 a_n2224_n4888# 0.019064f
C105 minus.n32 a_n2224_n4888# 0.26429f
C106 minus.n33 a_n2224_n4888# 0.278004f
C107 minus.n34 a_n2224_n4888# 2.33318f
C108 minus.n35 a_n2224_n4888# 0.05003f
C109 minus.t23 a_n2224_n4888# 0.70454f
C110 minus.t6 a_n2224_n4888# 0.70454f
C111 minus.n36 a_n2224_n4888# 0.018139f
C112 minus.n37 a_n2224_n4888# 0.05003f
C113 minus.t19 a_n2224_n4888# 0.70454f
C114 minus.t21 a_n2224_n4888# 0.70454f
C115 minus.t0 a_n2224_n4888# 0.70454f
C116 minus.n38 a_n2224_n4888# 0.26429f
C117 minus.n39 a_n2224_n4888# 0.05003f
C118 minus.t10 a_n2224_n4888# 0.70454f
C119 minus.t15 a_n2224_n4888# 0.70454f
C120 minus.n40 a_n2224_n4888# 0.017522f
C121 minus.t2 a_n2224_n4888# 0.70804f
C122 minus.n41 a_n2224_n4888# 0.278067f
C123 minus.t7 a_n2224_n4888# 0.70454f
C124 minus.n42 a_n2224_n4888# 0.26429f
C125 minus.t22 a_n2224_n4888# 0.70454f
C126 minus.n43 a_n2224_n4888# 0.26429f
C127 minus.n44 a_n2224_n4888# 0.019064f
C128 minus.n45 a_n2224_n4888# 0.104006f
C129 minus.n46 a_n2224_n4888# 0.05003f
C130 minus.n47 a_n2224_n4888# 0.05003f
C131 minus.n48 a_n2224_n4888# 0.018139f
C132 minus.n49 a_n2224_n4888# 0.26429f
C133 minus.n50 a_n2224_n4888# 0.019064f
C134 minus.n51 a_n2224_n4888# 0.26429f
C135 minus.n52 a_n2224_n4888# 0.019064f
C136 minus.n53 a_n2224_n4888# 0.05003f
C137 minus.n54 a_n2224_n4888# 0.05003f
C138 minus.n55 a_n2224_n4888# 0.019064f
C139 minus.n56 a_n2224_n4888# 0.26429f
C140 minus.n57 a_n2224_n4888# 0.019064f
C141 minus.n58 a_n2224_n4888# 0.26429f
C142 minus.t14 a_n2224_n4888# 0.70454f
C143 minus.n59 a_n2224_n4888# 0.26429f
C144 minus.n60 a_n2224_n4888# 0.019064f
C145 minus.n61 a_n2224_n4888# 0.05003f
C146 minus.n62 a_n2224_n4888# 0.05003f
C147 minus.n63 a_n2224_n4888# 0.05003f
C148 minus.n64 a_n2224_n4888# 0.017522f
C149 minus.n65 a_n2224_n4888# 0.26429f
C150 minus.n66 a_n2224_n4888# 0.019064f
C151 minus.n67 a_n2224_n4888# 0.26429f
C152 minus.t16 a_n2224_n4888# 0.70804f
C153 minus.n68 a_n2224_n4888# 0.278004f
C154 minus.n69 a_n2224_n4888# 0.319079f
C155 minus.n70 a_n2224_n4888# 2.77583f
C156 drain_left.t9 a_n2224_n4888# 0.579213f
C157 drain_left.t6 a_n2224_n4888# 0.579213f
C158 drain_left.n0 a_n2224_n4888# 5.29895f
C159 drain_left.t5 a_n2224_n4888# 0.579213f
C160 drain_left.t2 a_n2224_n4888# 0.579213f
C161 drain_left.n1 a_n2224_n4888# 5.29529f
C162 drain_left.n2 a_n2224_n4888# 0.865794f
C163 drain_left.t14 a_n2224_n4888# 0.579213f
C164 drain_left.t4 a_n2224_n4888# 0.579213f
C165 drain_left.n3 a_n2224_n4888# 5.29529f
C166 drain_left.n4 a_n2224_n4888# 0.395655f
C167 drain_left.t3 a_n2224_n4888# 0.579213f
C168 drain_left.t21 a_n2224_n4888# 0.579213f
C169 drain_left.n5 a_n2224_n4888# 5.29895f
C170 drain_left.t17 a_n2224_n4888# 0.579213f
C171 drain_left.t10 a_n2224_n4888# 0.579213f
C172 drain_left.n6 a_n2224_n4888# 5.29529f
C173 drain_left.n7 a_n2224_n4888# 0.865794f
C174 drain_left.t0 a_n2224_n4888# 0.579213f
C175 drain_left.t15 a_n2224_n4888# 0.579213f
C176 drain_left.n8 a_n2224_n4888# 5.29529f
C177 drain_left.n9 a_n2224_n4888# 0.395655f
C178 drain_left.n10 a_n2224_n4888# 2.65418f
C179 drain_left.t16 a_n2224_n4888# 0.579213f
C180 drain_left.t22 a_n2224_n4888# 0.579213f
C181 drain_left.n11 a_n2224_n4888# 5.29895f
C182 drain_left.t11 a_n2224_n4888# 0.579213f
C183 drain_left.t23 a_n2224_n4888# 0.579213f
C184 drain_left.n12 a_n2224_n4888# 5.29528f
C185 drain_left.n13 a_n2224_n4888# 0.865809f
C186 drain_left.t12 a_n2224_n4888# 0.579213f
C187 drain_left.t1 a_n2224_n4888# 0.579213f
C188 drain_left.n14 a_n2224_n4888# 5.29528f
C189 drain_left.n15 a_n2224_n4888# 0.427356f
C190 drain_left.t13 a_n2224_n4888# 0.579213f
C191 drain_left.t18 a_n2224_n4888# 0.579213f
C192 drain_left.n16 a_n2224_n4888# 5.29528f
C193 drain_left.n17 a_n2224_n4888# 0.427356f
C194 drain_left.t7 a_n2224_n4888# 0.579213f
C195 drain_left.t19 a_n2224_n4888# 0.579213f
C196 drain_left.n18 a_n2224_n4888# 5.29528f
C197 drain_left.n19 a_n2224_n4888# 0.427356f
C198 drain_left.t8 a_n2224_n4888# 0.579213f
C199 drain_left.t20 a_n2224_n4888# 0.579213f
C200 drain_left.n20 a_n2224_n4888# 5.29528f
C201 drain_left.n21 a_n2224_n4888# 0.729863f
C202 source.t40 a_n2224_n4888# 5.75814f
C203 source.n0 a_n2224_n4888# 2.44215f
C204 source.t34 a_n2224_n4888# 0.503845f
C205 source.t47 a_n2224_n4888# 0.503845f
C206 source.n1 a_n2224_n4888# 4.50459f
C207 source.n2 a_n2224_n4888# 0.430084f
C208 source.t33 a_n2224_n4888# 0.503845f
C209 source.t28 a_n2224_n4888# 0.503845f
C210 source.n3 a_n2224_n4888# 4.50459f
C211 source.n4 a_n2224_n4888# 0.430084f
C212 source.t39 a_n2224_n4888# 0.503845f
C213 source.t30 a_n2224_n4888# 0.503845f
C214 source.n5 a_n2224_n4888# 4.50459f
C215 source.n6 a_n2224_n4888# 0.430084f
C216 source.t42 a_n2224_n4888# 0.503845f
C217 source.t29 a_n2224_n4888# 0.503845f
C218 source.n7 a_n2224_n4888# 4.50459f
C219 source.n8 a_n2224_n4888# 0.430084f