* NGSPICE file created from diffpair445.ext - technology: sky130A

.subckt diffpair445 minus drain_right drain_left source plus
X0 a_n1878_n3288# a_n1878_n3288# a_n1878_n3288# a_n1878_n3288# sky130_fd_pr__nfet_01v8 ad=4.68 pd=24.78 as=37.44 ps=198.24 w=12 l=0.5
X1 source.t19 plus.t0 drain_left.t7 a_n1878_n3288# sky130_fd_pr__nfet_01v8 ad=1.98 pd=12.33 as=1.98 ps=12.33 w=12 l=0.5
X2 drain_left.t6 plus.t1 source.t18 a_n1878_n3288# sky130_fd_pr__nfet_01v8 ad=1.98 pd=12.33 as=1.98 ps=12.33 w=12 l=0.5
X3 drain_right.t11 minus.t0 source.t7 a_n1878_n3288# sky130_fd_pr__nfet_01v8 ad=1.98 pd=12.33 as=1.98 ps=12.33 w=12 l=0.5
X4 source.t1 minus.t1 drain_right.t10 a_n1878_n3288# sky130_fd_pr__nfet_01v8 ad=4.68 pd=24.78 as=1.98 ps=12.33 w=12 l=0.5
X5 source.t4 minus.t2 drain_right.t9 a_n1878_n3288# sky130_fd_pr__nfet_01v8 ad=1.98 pd=12.33 as=1.98 ps=12.33 w=12 l=0.5
X6 a_n1878_n3288# a_n1878_n3288# a_n1878_n3288# a_n1878_n3288# sky130_fd_pr__nfet_01v8 ad=4.68 pd=24.78 as=0 ps=0 w=12 l=0.5
X7 source.t17 plus.t2 drain_left.t4 a_n1878_n3288# sky130_fd_pr__nfet_01v8 ad=4.68 pd=24.78 as=1.98 ps=12.33 w=12 l=0.5
X8 source.t6 minus.t3 drain_right.t8 a_n1878_n3288# sky130_fd_pr__nfet_01v8 ad=1.98 pd=12.33 as=1.98 ps=12.33 w=12 l=0.5
X9 drain_right.t7 minus.t4 source.t5 a_n1878_n3288# sky130_fd_pr__nfet_01v8 ad=1.98 pd=12.33 as=1.98 ps=12.33 w=12 l=0.5
X10 drain_left.t1 plus.t3 source.t16 a_n1878_n3288# sky130_fd_pr__nfet_01v8 ad=1.98 pd=12.33 as=1.98 ps=12.33 w=12 l=0.5
X11 drain_right.t6 minus.t5 source.t22 a_n1878_n3288# sky130_fd_pr__nfet_01v8 ad=1.98 pd=12.33 as=1.98 ps=12.33 w=12 l=0.5
X12 drain_left.t0 plus.t4 source.t15 a_n1878_n3288# sky130_fd_pr__nfet_01v8 ad=1.98 pd=12.33 as=1.98 ps=12.33 w=12 l=0.5
X13 source.t14 plus.t5 drain_left.t2 a_n1878_n3288# sky130_fd_pr__nfet_01v8 ad=4.68 pd=24.78 as=1.98 ps=12.33 w=12 l=0.5
X14 drain_right.t5 minus.t6 source.t0 a_n1878_n3288# sky130_fd_pr__nfet_01v8 ad=1.98 pd=12.33 as=1.98 ps=12.33 w=12 l=0.5
X15 source.t23 minus.t7 drain_right.t4 a_n1878_n3288# sky130_fd_pr__nfet_01v8 ad=1.98 pd=12.33 as=1.98 ps=12.33 w=12 l=0.5
X16 source.t3 minus.t8 drain_right.t3 a_n1878_n3288# sky130_fd_pr__nfet_01v8 ad=4.68 pd=24.78 as=1.98 ps=12.33 w=12 l=0.5
X17 a_n1878_n3288# a_n1878_n3288# a_n1878_n3288# a_n1878_n3288# sky130_fd_pr__nfet_01v8 ad=4.68 pd=24.78 as=0 ps=0 w=12 l=0.5
X18 a_n1878_n3288# a_n1878_n3288# a_n1878_n3288# a_n1878_n3288# sky130_fd_pr__nfet_01v8 ad=4.68 pd=24.78 as=0 ps=0 w=12 l=0.5
X19 drain_right.t2 minus.t9 source.t2 a_n1878_n3288# sky130_fd_pr__nfet_01v8 ad=1.98 pd=12.33 as=4.68 ps=24.78 w=12 l=0.5
X20 drain_right.t1 minus.t10 source.t20 a_n1878_n3288# sky130_fd_pr__nfet_01v8 ad=1.98 pd=12.33 as=4.68 ps=24.78 w=12 l=0.5
X21 drain_left.t3 plus.t6 source.t13 a_n1878_n3288# sky130_fd_pr__nfet_01v8 ad=1.98 pd=12.33 as=1.98 ps=12.33 w=12 l=0.5
X22 source.t21 minus.t11 drain_right.t0 a_n1878_n3288# sky130_fd_pr__nfet_01v8 ad=1.98 pd=12.33 as=1.98 ps=12.33 w=12 l=0.5
X23 source.t12 plus.t7 drain_left.t8 a_n1878_n3288# sky130_fd_pr__nfet_01v8 ad=1.98 pd=12.33 as=1.98 ps=12.33 w=12 l=0.5
X24 drain_left.t5 plus.t8 source.t11 a_n1878_n3288# sky130_fd_pr__nfet_01v8 ad=1.98 pd=12.33 as=4.68 ps=24.78 w=12 l=0.5
X25 source.t10 plus.t9 drain_left.t11 a_n1878_n3288# sky130_fd_pr__nfet_01v8 ad=1.98 pd=12.33 as=1.98 ps=12.33 w=12 l=0.5
X26 source.t9 plus.t10 drain_left.t10 a_n1878_n3288# sky130_fd_pr__nfet_01v8 ad=1.98 pd=12.33 as=1.98 ps=12.33 w=12 l=0.5
X27 drain_left.t9 plus.t11 source.t8 a_n1878_n3288# sky130_fd_pr__nfet_01v8 ad=1.98 pd=12.33 as=4.68 ps=24.78 w=12 l=0.5
R0 plus.n5 plus.t2 683.635
R1 plus.n19 plus.t8 683.635
R2 plus.n12 plus.t11 656.966
R3 plus.n10 plus.t7 656.966
R4 plus.n9 plus.t4 656.966
R5 plus.n3 plus.t10 656.966
R6 plus.n4 plus.t6 656.966
R7 plus.n26 plus.t5 656.966
R8 plus.n24 plus.t1 656.966
R9 plus.n23 plus.t0 656.966
R10 plus.n17 plus.t3 656.966
R11 plus.n18 plus.t9 656.966
R12 plus.n6 plus.n3 161.3
R13 plus.n8 plus.n7 161.3
R14 plus.n9 plus.n2 161.3
R15 plus.n10 plus.n1 161.3
R16 plus.n11 plus.n0 161.3
R17 plus.n13 plus.n12 161.3
R18 plus.n20 plus.n17 161.3
R19 plus.n22 plus.n21 161.3
R20 plus.n23 plus.n16 161.3
R21 plus.n24 plus.n15 161.3
R22 plus.n25 plus.n14 161.3
R23 plus.n27 plus.n26 161.3
R24 plus.n10 plus.n9 48.2005
R25 plus.n4 plus.n3 48.2005
R26 plus.n24 plus.n23 48.2005
R27 plus.n18 plus.n17 48.2005
R28 plus.n12 plus.n11 47.4702
R29 plus.n26 plus.n25 47.4702
R30 plus.n6 plus.n5 45.1192
R31 plus.n20 plus.n19 45.1192
R32 plus plus.n27 30.1467
R33 plus.n8 plus.n3 24.1005
R34 plus.n9 plus.n8 24.1005
R35 plus.n23 plus.n22 24.1005
R36 plus.n22 plus.n17 24.1005
R37 plus.n5 plus.n4 13.6377
R38 plus.n19 plus.n18 13.6377
R39 plus plus.n13 12.1747
R40 plus.n11 plus.n10 0.730803
R41 plus.n25 plus.n24 0.730803
R42 plus.n7 plus.n6 0.189894
R43 plus.n7 plus.n2 0.189894
R44 plus.n2 plus.n1 0.189894
R45 plus.n1 plus.n0 0.189894
R46 plus.n13 plus.n0 0.189894
R47 plus.n27 plus.n14 0.189894
R48 plus.n15 plus.n14 0.189894
R49 plus.n16 plus.n15 0.189894
R50 plus.n21 plus.n16 0.189894
R51 plus.n21 plus.n20 0.189894
R52 drain_left.n6 drain_left.n4 60.2682
R53 drain_left.n3 drain_left.n2 60.2127
R54 drain_left.n3 drain_left.n0 60.2127
R55 drain_left.n6 drain_left.n5 59.5527
R56 drain_left.n3 drain_left.n1 59.5525
R57 drain_left.n8 drain_left.n7 59.5525
R58 drain_left drain_left.n3 30.9447
R59 drain_left drain_left.n8 6.36873
R60 drain_left.n1 drain_left.t7 1.6505
R61 drain_left.n1 drain_left.t1 1.6505
R62 drain_left.n2 drain_left.t11 1.6505
R63 drain_left.n2 drain_left.t5 1.6505
R64 drain_left.n0 drain_left.t2 1.6505
R65 drain_left.n0 drain_left.t6 1.6505
R66 drain_left.n7 drain_left.t8 1.6505
R67 drain_left.n7 drain_left.t9 1.6505
R68 drain_left.n5 drain_left.t10 1.6505
R69 drain_left.n5 drain_left.t0 1.6505
R70 drain_left.n4 drain_left.t4 1.6505
R71 drain_left.n4 drain_left.t3 1.6505
R72 drain_left.n8 drain_left.n6 0.716017
R73 source.n538 source.n478 289.615
R74 source.n468 source.n408 289.615
R75 source.n402 source.n342 289.615
R76 source.n332 source.n272 289.615
R77 source.n60 source.n0 289.615
R78 source.n130 source.n70 289.615
R79 source.n196 source.n136 289.615
R80 source.n266 source.n206 289.615
R81 source.n498 source.n497 185
R82 source.n503 source.n502 185
R83 source.n505 source.n504 185
R84 source.n494 source.n493 185
R85 source.n511 source.n510 185
R86 source.n513 source.n512 185
R87 source.n490 source.n489 185
R88 source.n520 source.n519 185
R89 source.n521 source.n488 185
R90 source.n523 source.n522 185
R91 source.n486 source.n485 185
R92 source.n529 source.n528 185
R93 source.n531 source.n530 185
R94 source.n482 source.n481 185
R95 source.n537 source.n536 185
R96 source.n539 source.n538 185
R97 source.n428 source.n427 185
R98 source.n433 source.n432 185
R99 source.n435 source.n434 185
R100 source.n424 source.n423 185
R101 source.n441 source.n440 185
R102 source.n443 source.n442 185
R103 source.n420 source.n419 185
R104 source.n450 source.n449 185
R105 source.n451 source.n418 185
R106 source.n453 source.n452 185
R107 source.n416 source.n415 185
R108 source.n459 source.n458 185
R109 source.n461 source.n460 185
R110 source.n412 source.n411 185
R111 source.n467 source.n466 185
R112 source.n469 source.n468 185
R113 source.n362 source.n361 185
R114 source.n367 source.n366 185
R115 source.n369 source.n368 185
R116 source.n358 source.n357 185
R117 source.n375 source.n374 185
R118 source.n377 source.n376 185
R119 source.n354 source.n353 185
R120 source.n384 source.n383 185
R121 source.n385 source.n352 185
R122 source.n387 source.n386 185
R123 source.n350 source.n349 185
R124 source.n393 source.n392 185
R125 source.n395 source.n394 185
R126 source.n346 source.n345 185
R127 source.n401 source.n400 185
R128 source.n403 source.n402 185
R129 source.n292 source.n291 185
R130 source.n297 source.n296 185
R131 source.n299 source.n298 185
R132 source.n288 source.n287 185
R133 source.n305 source.n304 185
R134 source.n307 source.n306 185
R135 source.n284 source.n283 185
R136 source.n314 source.n313 185
R137 source.n315 source.n282 185
R138 source.n317 source.n316 185
R139 source.n280 source.n279 185
R140 source.n323 source.n322 185
R141 source.n325 source.n324 185
R142 source.n276 source.n275 185
R143 source.n331 source.n330 185
R144 source.n333 source.n332 185
R145 source.n61 source.n60 185
R146 source.n59 source.n58 185
R147 source.n4 source.n3 185
R148 source.n53 source.n52 185
R149 source.n51 source.n50 185
R150 source.n8 source.n7 185
R151 source.n45 source.n44 185
R152 source.n43 source.n10 185
R153 source.n42 source.n41 185
R154 source.n13 source.n11 185
R155 source.n36 source.n35 185
R156 source.n34 source.n33 185
R157 source.n17 source.n16 185
R158 source.n28 source.n27 185
R159 source.n26 source.n25 185
R160 source.n21 source.n20 185
R161 source.n131 source.n130 185
R162 source.n129 source.n128 185
R163 source.n74 source.n73 185
R164 source.n123 source.n122 185
R165 source.n121 source.n120 185
R166 source.n78 source.n77 185
R167 source.n115 source.n114 185
R168 source.n113 source.n80 185
R169 source.n112 source.n111 185
R170 source.n83 source.n81 185
R171 source.n106 source.n105 185
R172 source.n104 source.n103 185
R173 source.n87 source.n86 185
R174 source.n98 source.n97 185
R175 source.n96 source.n95 185
R176 source.n91 source.n90 185
R177 source.n197 source.n196 185
R178 source.n195 source.n194 185
R179 source.n140 source.n139 185
R180 source.n189 source.n188 185
R181 source.n187 source.n186 185
R182 source.n144 source.n143 185
R183 source.n181 source.n180 185
R184 source.n179 source.n146 185
R185 source.n178 source.n177 185
R186 source.n149 source.n147 185
R187 source.n172 source.n171 185
R188 source.n170 source.n169 185
R189 source.n153 source.n152 185
R190 source.n164 source.n163 185
R191 source.n162 source.n161 185
R192 source.n157 source.n156 185
R193 source.n267 source.n266 185
R194 source.n265 source.n264 185
R195 source.n210 source.n209 185
R196 source.n259 source.n258 185
R197 source.n257 source.n256 185
R198 source.n214 source.n213 185
R199 source.n251 source.n250 185
R200 source.n249 source.n216 185
R201 source.n248 source.n247 185
R202 source.n219 source.n217 185
R203 source.n242 source.n241 185
R204 source.n240 source.n239 185
R205 source.n223 source.n222 185
R206 source.n234 source.n233 185
R207 source.n232 source.n231 185
R208 source.n227 source.n226 185
R209 source.n499 source.t2 149.524
R210 source.n429 source.t1 149.524
R211 source.n363 source.t11 149.524
R212 source.n293 source.t14 149.524
R213 source.n22 source.t8 149.524
R214 source.n92 source.t17 149.524
R215 source.n158 source.t20 149.524
R216 source.n228 source.t3 149.524
R217 source.n503 source.n497 104.615
R218 source.n504 source.n503 104.615
R219 source.n504 source.n493 104.615
R220 source.n511 source.n493 104.615
R221 source.n512 source.n511 104.615
R222 source.n512 source.n489 104.615
R223 source.n520 source.n489 104.615
R224 source.n521 source.n520 104.615
R225 source.n522 source.n521 104.615
R226 source.n522 source.n485 104.615
R227 source.n529 source.n485 104.615
R228 source.n530 source.n529 104.615
R229 source.n530 source.n481 104.615
R230 source.n537 source.n481 104.615
R231 source.n538 source.n537 104.615
R232 source.n433 source.n427 104.615
R233 source.n434 source.n433 104.615
R234 source.n434 source.n423 104.615
R235 source.n441 source.n423 104.615
R236 source.n442 source.n441 104.615
R237 source.n442 source.n419 104.615
R238 source.n450 source.n419 104.615
R239 source.n451 source.n450 104.615
R240 source.n452 source.n451 104.615
R241 source.n452 source.n415 104.615
R242 source.n459 source.n415 104.615
R243 source.n460 source.n459 104.615
R244 source.n460 source.n411 104.615
R245 source.n467 source.n411 104.615
R246 source.n468 source.n467 104.615
R247 source.n367 source.n361 104.615
R248 source.n368 source.n367 104.615
R249 source.n368 source.n357 104.615
R250 source.n375 source.n357 104.615
R251 source.n376 source.n375 104.615
R252 source.n376 source.n353 104.615
R253 source.n384 source.n353 104.615
R254 source.n385 source.n384 104.615
R255 source.n386 source.n385 104.615
R256 source.n386 source.n349 104.615
R257 source.n393 source.n349 104.615
R258 source.n394 source.n393 104.615
R259 source.n394 source.n345 104.615
R260 source.n401 source.n345 104.615
R261 source.n402 source.n401 104.615
R262 source.n297 source.n291 104.615
R263 source.n298 source.n297 104.615
R264 source.n298 source.n287 104.615
R265 source.n305 source.n287 104.615
R266 source.n306 source.n305 104.615
R267 source.n306 source.n283 104.615
R268 source.n314 source.n283 104.615
R269 source.n315 source.n314 104.615
R270 source.n316 source.n315 104.615
R271 source.n316 source.n279 104.615
R272 source.n323 source.n279 104.615
R273 source.n324 source.n323 104.615
R274 source.n324 source.n275 104.615
R275 source.n331 source.n275 104.615
R276 source.n332 source.n331 104.615
R277 source.n60 source.n59 104.615
R278 source.n59 source.n3 104.615
R279 source.n52 source.n3 104.615
R280 source.n52 source.n51 104.615
R281 source.n51 source.n7 104.615
R282 source.n44 source.n7 104.615
R283 source.n44 source.n43 104.615
R284 source.n43 source.n42 104.615
R285 source.n42 source.n11 104.615
R286 source.n35 source.n11 104.615
R287 source.n35 source.n34 104.615
R288 source.n34 source.n16 104.615
R289 source.n27 source.n16 104.615
R290 source.n27 source.n26 104.615
R291 source.n26 source.n20 104.615
R292 source.n130 source.n129 104.615
R293 source.n129 source.n73 104.615
R294 source.n122 source.n73 104.615
R295 source.n122 source.n121 104.615
R296 source.n121 source.n77 104.615
R297 source.n114 source.n77 104.615
R298 source.n114 source.n113 104.615
R299 source.n113 source.n112 104.615
R300 source.n112 source.n81 104.615
R301 source.n105 source.n81 104.615
R302 source.n105 source.n104 104.615
R303 source.n104 source.n86 104.615
R304 source.n97 source.n86 104.615
R305 source.n97 source.n96 104.615
R306 source.n96 source.n90 104.615
R307 source.n196 source.n195 104.615
R308 source.n195 source.n139 104.615
R309 source.n188 source.n139 104.615
R310 source.n188 source.n187 104.615
R311 source.n187 source.n143 104.615
R312 source.n180 source.n143 104.615
R313 source.n180 source.n179 104.615
R314 source.n179 source.n178 104.615
R315 source.n178 source.n147 104.615
R316 source.n171 source.n147 104.615
R317 source.n171 source.n170 104.615
R318 source.n170 source.n152 104.615
R319 source.n163 source.n152 104.615
R320 source.n163 source.n162 104.615
R321 source.n162 source.n156 104.615
R322 source.n266 source.n265 104.615
R323 source.n265 source.n209 104.615
R324 source.n258 source.n209 104.615
R325 source.n258 source.n257 104.615
R326 source.n257 source.n213 104.615
R327 source.n250 source.n213 104.615
R328 source.n250 source.n249 104.615
R329 source.n249 source.n248 104.615
R330 source.n248 source.n217 104.615
R331 source.n241 source.n217 104.615
R332 source.n241 source.n240 104.615
R333 source.n240 source.n222 104.615
R334 source.n233 source.n222 104.615
R335 source.n233 source.n232 104.615
R336 source.n232 source.n226 104.615
R337 source.t2 source.n497 52.3082
R338 source.t1 source.n427 52.3082
R339 source.t11 source.n361 52.3082
R340 source.t14 source.n291 52.3082
R341 source.t8 source.n20 52.3082
R342 source.t17 source.n90 52.3082
R343 source.t20 source.n156 52.3082
R344 source.t3 source.n226 52.3082
R345 source.n67 source.n66 42.8739
R346 source.n69 source.n68 42.8739
R347 source.n203 source.n202 42.8739
R348 source.n205 source.n204 42.8739
R349 source.n477 source.n476 42.8737
R350 source.n475 source.n474 42.8737
R351 source.n341 source.n340 42.8737
R352 source.n339 source.n338 42.8737
R353 source.n543 source.n542 29.8581
R354 source.n473 source.n472 29.8581
R355 source.n407 source.n406 29.8581
R356 source.n337 source.n336 29.8581
R357 source.n65 source.n64 29.8581
R358 source.n135 source.n134 29.8581
R359 source.n201 source.n200 29.8581
R360 source.n271 source.n270 29.8581
R361 source.n337 source.n271 22.0032
R362 source.n544 source.n65 16.3826
R363 source.n523 source.n488 13.1884
R364 source.n453 source.n418 13.1884
R365 source.n387 source.n352 13.1884
R366 source.n317 source.n282 13.1884
R367 source.n45 source.n10 13.1884
R368 source.n115 source.n80 13.1884
R369 source.n181 source.n146 13.1884
R370 source.n251 source.n216 13.1884
R371 source.n519 source.n518 12.8005
R372 source.n524 source.n486 12.8005
R373 source.n449 source.n448 12.8005
R374 source.n454 source.n416 12.8005
R375 source.n383 source.n382 12.8005
R376 source.n388 source.n350 12.8005
R377 source.n313 source.n312 12.8005
R378 source.n318 source.n280 12.8005
R379 source.n46 source.n8 12.8005
R380 source.n41 source.n12 12.8005
R381 source.n116 source.n78 12.8005
R382 source.n111 source.n82 12.8005
R383 source.n182 source.n144 12.8005
R384 source.n177 source.n148 12.8005
R385 source.n252 source.n214 12.8005
R386 source.n247 source.n218 12.8005
R387 source.n517 source.n490 12.0247
R388 source.n528 source.n527 12.0247
R389 source.n447 source.n420 12.0247
R390 source.n458 source.n457 12.0247
R391 source.n381 source.n354 12.0247
R392 source.n392 source.n391 12.0247
R393 source.n311 source.n284 12.0247
R394 source.n322 source.n321 12.0247
R395 source.n50 source.n49 12.0247
R396 source.n40 source.n13 12.0247
R397 source.n120 source.n119 12.0247
R398 source.n110 source.n83 12.0247
R399 source.n186 source.n185 12.0247
R400 source.n176 source.n149 12.0247
R401 source.n256 source.n255 12.0247
R402 source.n246 source.n219 12.0247
R403 source.n514 source.n513 11.249
R404 source.n531 source.n484 11.249
R405 source.n444 source.n443 11.249
R406 source.n461 source.n414 11.249
R407 source.n378 source.n377 11.249
R408 source.n395 source.n348 11.249
R409 source.n308 source.n307 11.249
R410 source.n325 source.n278 11.249
R411 source.n53 source.n6 11.249
R412 source.n37 source.n36 11.249
R413 source.n123 source.n76 11.249
R414 source.n107 source.n106 11.249
R415 source.n189 source.n142 11.249
R416 source.n173 source.n172 11.249
R417 source.n259 source.n212 11.249
R418 source.n243 source.n242 11.249
R419 source.n510 source.n492 10.4732
R420 source.n532 source.n482 10.4732
R421 source.n440 source.n422 10.4732
R422 source.n462 source.n412 10.4732
R423 source.n374 source.n356 10.4732
R424 source.n396 source.n346 10.4732
R425 source.n304 source.n286 10.4732
R426 source.n326 source.n276 10.4732
R427 source.n54 source.n4 10.4732
R428 source.n33 source.n15 10.4732
R429 source.n124 source.n74 10.4732
R430 source.n103 source.n85 10.4732
R431 source.n190 source.n140 10.4732
R432 source.n169 source.n151 10.4732
R433 source.n260 source.n210 10.4732
R434 source.n239 source.n221 10.4732
R435 source.n499 source.n498 10.2747
R436 source.n429 source.n428 10.2747
R437 source.n363 source.n362 10.2747
R438 source.n293 source.n292 10.2747
R439 source.n22 source.n21 10.2747
R440 source.n92 source.n91 10.2747
R441 source.n158 source.n157 10.2747
R442 source.n228 source.n227 10.2747
R443 source.n509 source.n494 9.69747
R444 source.n536 source.n535 9.69747
R445 source.n439 source.n424 9.69747
R446 source.n466 source.n465 9.69747
R447 source.n373 source.n358 9.69747
R448 source.n400 source.n399 9.69747
R449 source.n303 source.n288 9.69747
R450 source.n330 source.n329 9.69747
R451 source.n58 source.n57 9.69747
R452 source.n32 source.n17 9.69747
R453 source.n128 source.n127 9.69747
R454 source.n102 source.n87 9.69747
R455 source.n194 source.n193 9.69747
R456 source.n168 source.n153 9.69747
R457 source.n264 source.n263 9.69747
R458 source.n238 source.n223 9.69747
R459 source.n542 source.n541 9.45567
R460 source.n472 source.n471 9.45567
R461 source.n406 source.n405 9.45567
R462 source.n336 source.n335 9.45567
R463 source.n64 source.n63 9.45567
R464 source.n134 source.n133 9.45567
R465 source.n200 source.n199 9.45567
R466 source.n270 source.n269 9.45567
R467 source.n541 source.n540 9.3005
R468 source.n480 source.n479 9.3005
R469 source.n535 source.n534 9.3005
R470 source.n533 source.n532 9.3005
R471 source.n484 source.n483 9.3005
R472 source.n527 source.n526 9.3005
R473 source.n525 source.n524 9.3005
R474 source.n501 source.n500 9.3005
R475 source.n496 source.n495 9.3005
R476 source.n507 source.n506 9.3005
R477 source.n509 source.n508 9.3005
R478 source.n492 source.n491 9.3005
R479 source.n515 source.n514 9.3005
R480 source.n517 source.n516 9.3005
R481 source.n518 source.n487 9.3005
R482 source.n471 source.n470 9.3005
R483 source.n410 source.n409 9.3005
R484 source.n465 source.n464 9.3005
R485 source.n463 source.n462 9.3005
R486 source.n414 source.n413 9.3005
R487 source.n457 source.n456 9.3005
R488 source.n455 source.n454 9.3005
R489 source.n431 source.n430 9.3005
R490 source.n426 source.n425 9.3005
R491 source.n437 source.n436 9.3005
R492 source.n439 source.n438 9.3005
R493 source.n422 source.n421 9.3005
R494 source.n445 source.n444 9.3005
R495 source.n447 source.n446 9.3005
R496 source.n448 source.n417 9.3005
R497 source.n405 source.n404 9.3005
R498 source.n344 source.n343 9.3005
R499 source.n399 source.n398 9.3005
R500 source.n397 source.n396 9.3005
R501 source.n348 source.n347 9.3005
R502 source.n391 source.n390 9.3005
R503 source.n389 source.n388 9.3005
R504 source.n365 source.n364 9.3005
R505 source.n360 source.n359 9.3005
R506 source.n371 source.n370 9.3005
R507 source.n373 source.n372 9.3005
R508 source.n356 source.n355 9.3005
R509 source.n379 source.n378 9.3005
R510 source.n381 source.n380 9.3005
R511 source.n382 source.n351 9.3005
R512 source.n335 source.n334 9.3005
R513 source.n274 source.n273 9.3005
R514 source.n329 source.n328 9.3005
R515 source.n327 source.n326 9.3005
R516 source.n278 source.n277 9.3005
R517 source.n321 source.n320 9.3005
R518 source.n319 source.n318 9.3005
R519 source.n295 source.n294 9.3005
R520 source.n290 source.n289 9.3005
R521 source.n301 source.n300 9.3005
R522 source.n303 source.n302 9.3005
R523 source.n286 source.n285 9.3005
R524 source.n309 source.n308 9.3005
R525 source.n311 source.n310 9.3005
R526 source.n312 source.n281 9.3005
R527 source.n24 source.n23 9.3005
R528 source.n19 source.n18 9.3005
R529 source.n30 source.n29 9.3005
R530 source.n32 source.n31 9.3005
R531 source.n15 source.n14 9.3005
R532 source.n38 source.n37 9.3005
R533 source.n40 source.n39 9.3005
R534 source.n12 source.n9 9.3005
R535 source.n63 source.n62 9.3005
R536 source.n2 source.n1 9.3005
R537 source.n57 source.n56 9.3005
R538 source.n55 source.n54 9.3005
R539 source.n6 source.n5 9.3005
R540 source.n49 source.n48 9.3005
R541 source.n47 source.n46 9.3005
R542 source.n94 source.n93 9.3005
R543 source.n89 source.n88 9.3005
R544 source.n100 source.n99 9.3005
R545 source.n102 source.n101 9.3005
R546 source.n85 source.n84 9.3005
R547 source.n108 source.n107 9.3005
R548 source.n110 source.n109 9.3005
R549 source.n82 source.n79 9.3005
R550 source.n133 source.n132 9.3005
R551 source.n72 source.n71 9.3005
R552 source.n127 source.n126 9.3005
R553 source.n125 source.n124 9.3005
R554 source.n76 source.n75 9.3005
R555 source.n119 source.n118 9.3005
R556 source.n117 source.n116 9.3005
R557 source.n160 source.n159 9.3005
R558 source.n155 source.n154 9.3005
R559 source.n166 source.n165 9.3005
R560 source.n168 source.n167 9.3005
R561 source.n151 source.n150 9.3005
R562 source.n174 source.n173 9.3005
R563 source.n176 source.n175 9.3005
R564 source.n148 source.n145 9.3005
R565 source.n199 source.n198 9.3005
R566 source.n138 source.n137 9.3005
R567 source.n193 source.n192 9.3005
R568 source.n191 source.n190 9.3005
R569 source.n142 source.n141 9.3005
R570 source.n185 source.n184 9.3005
R571 source.n183 source.n182 9.3005
R572 source.n230 source.n229 9.3005
R573 source.n225 source.n224 9.3005
R574 source.n236 source.n235 9.3005
R575 source.n238 source.n237 9.3005
R576 source.n221 source.n220 9.3005
R577 source.n244 source.n243 9.3005
R578 source.n246 source.n245 9.3005
R579 source.n218 source.n215 9.3005
R580 source.n269 source.n268 9.3005
R581 source.n208 source.n207 9.3005
R582 source.n263 source.n262 9.3005
R583 source.n261 source.n260 9.3005
R584 source.n212 source.n211 9.3005
R585 source.n255 source.n254 9.3005
R586 source.n253 source.n252 9.3005
R587 source.n506 source.n505 8.92171
R588 source.n539 source.n480 8.92171
R589 source.n436 source.n435 8.92171
R590 source.n469 source.n410 8.92171
R591 source.n370 source.n369 8.92171
R592 source.n403 source.n344 8.92171
R593 source.n300 source.n299 8.92171
R594 source.n333 source.n274 8.92171
R595 source.n61 source.n2 8.92171
R596 source.n29 source.n28 8.92171
R597 source.n131 source.n72 8.92171
R598 source.n99 source.n98 8.92171
R599 source.n197 source.n138 8.92171
R600 source.n165 source.n164 8.92171
R601 source.n267 source.n208 8.92171
R602 source.n235 source.n234 8.92171
R603 source.n502 source.n496 8.14595
R604 source.n540 source.n478 8.14595
R605 source.n432 source.n426 8.14595
R606 source.n470 source.n408 8.14595
R607 source.n366 source.n360 8.14595
R608 source.n404 source.n342 8.14595
R609 source.n296 source.n290 8.14595
R610 source.n334 source.n272 8.14595
R611 source.n62 source.n0 8.14595
R612 source.n25 source.n19 8.14595
R613 source.n132 source.n70 8.14595
R614 source.n95 source.n89 8.14595
R615 source.n198 source.n136 8.14595
R616 source.n161 source.n155 8.14595
R617 source.n268 source.n206 8.14595
R618 source.n231 source.n225 8.14595
R619 source.n501 source.n498 7.3702
R620 source.n431 source.n428 7.3702
R621 source.n365 source.n362 7.3702
R622 source.n295 source.n292 7.3702
R623 source.n24 source.n21 7.3702
R624 source.n94 source.n91 7.3702
R625 source.n160 source.n157 7.3702
R626 source.n230 source.n227 7.3702
R627 source.n502 source.n501 5.81868
R628 source.n542 source.n478 5.81868
R629 source.n432 source.n431 5.81868
R630 source.n472 source.n408 5.81868
R631 source.n366 source.n365 5.81868
R632 source.n406 source.n342 5.81868
R633 source.n296 source.n295 5.81868
R634 source.n336 source.n272 5.81868
R635 source.n64 source.n0 5.81868
R636 source.n25 source.n24 5.81868
R637 source.n134 source.n70 5.81868
R638 source.n95 source.n94 5.81868
R639 source.n200 source.n136 5.81868
R640 source.n161 source.n160 5.81868
R641 source.n270 source.n206 5.81868
R642 source.n231 source.n230 5.81868
R643 source.n544 source.n543 5.62119
R644 source.n505 source.n496 5.04292
R645 source.n540 source.n539 5.04292
R646 source.n435 source.n426 5.04292
R647 source.n470 source.n469 5.04292
R648 source.n369 source.n360 5.04292
R649 source.n404 source.n403 5.04292
R650 source.n299 source.n290 5.04292
R651 source.n334 source.n333 5.04292
R652 source.n62 source.n61 5.04292
R653 source.n28 source.n19 5.04292
R654 source.n132 source.n131 5.04292
R655 source.n98 source.n89 5.04292
R656 source.n198 source.n197 5.04292
R657 source.n164 source.n155 5.04292
R658 source.n268 source.n267 5.04292
R659 source.n234 source.n225 5.04292
R660 source.n506 source.n494 4.26717
R661 source.n536 source.n480 4.26717
R662 source.n436 source.n424 4.26717
R663 source.n466 source.n410 4.26717
R664 source.n370 source.n358 4.26717
R665 source.n400 source.n344 4.26717
R666 source.n300 source.n288 4.26717
R667 source.n330 source.n274 4.26717
R668 source.n58 source.n2 4.26717
R669 source.n29 source.n17 4.26717
R670 source.n128 source.n72 4.26717
R671 source.n99 source.n87 4.26717
R672 source.n194 source.n138 4.26717
R673 source.n165 source.n153 4.26717
R674 source.n264 source.n208 4.26717
R675 source.n235 source.n223 4.26717
R676 source.n510 source.n509 3.49141
R677 source.n535 source.n482 3.49141
R678 source.n440 source.n439 3.49141
R679 source.n465 source.n412 3.49141
R680 source.n374 source.n373 3.49141
R681 source.n399 source.n346 3.49141
R682 source.n304 source.n303 3.49141
R683 source.n329 source.n276 3.49141
R684 source.n57 source.n4 3.49141
R685 source.n33 source.n32 3.49141
R686 source.n127 source.n74 3.49141
R687 source.n103 source.n102 3.49141
R688 source.n193 source.n140 3.49141
R689 source.n169 source.n168 3.49141
R690 source.n263 source.n210 3.49141
R691 source.n239 source.n238 3.49141
R692 source.n500 source.n499 2.84303
R693 source.n430 source.n429 2.84303
R694 source.n364 source.n363 2.84303
R695 source.n294 source.n293 2.84303
R696 source.n23 source.n22 2.84303
R697 source.n93 source.n92 2.84303
R698 source.n159 source.n158 2.84303
R699 source.n229 source.n228 2.84303
R700 source.n513 source.n492 2.71565
R701 source.n532 source.n531 2.71565
R702 source.n443 source.n422 2.71565
R703 source.n462 source.n461 2.71565
R704 source.n377 source.n356 2.71565
R705 source.n396 source.n395 2.71565
R706 source.n307 source.n286 2.71565
R707 source.n326 source.n325 2.71565
R708 source.n54 source.n53 2.71565
R709 source.n36 source.n15 2.71565
R710 source.n124 source.n123 2.71565
R711 source.n106 source.n85 2.71565
R712 source.n190 source.n189 2.71565
R713 source.n172 source.n151 2.71565
R714 source.n260 source.n259 2.71565
R715 source.n242 source.n221 2.71565
R716 source.n514 source.n490 1.93989
R717 source.n528 source.n484 1.93989
R718 source.n444 source.n420 1.93989
R719 source.n458 source.n414 1.93989
R720 source.n378 source.n354 1.93989
R721 source.n392 source.n348 1.93989
R722 source.n308 source.n284 1.93989
R723 source.n322 source.n278 1.93989
R724 source.n50 source.n6 1.93989
R725 source.n37 source.n13 1.93989
R726 source.n120 source.n76 1.93989
R727 source.n107 source.n83 1.93989
R728 source.n186 source.n142 1.93989
R729 source.n173 source.n149 1.93989
R730 source.n256 source.n212 1.93989
R731 source.n243 source.n219 1.93989
R732 source.n476 source.t0 1.6505
R733 source.n476 source.t6 1.6505
R734 source.n474 source.t7 1.6505
R735 source.n474 source.t23 1.6505
R736 source.n340 source.t16 1.6505
R737 source.n340 source.t10 1.6505
R738 source.n338 source.t18 1.6505
R739 source.n338 source.t19 1.6505
R740 source.n66 source.t15 1.6505
R741 source.n66 source.t12 1.6505
R742 source.n68 source.t13 1.6505
R743 source.n68 source.t9 1.6505
R744 source.n202 source.t22 1.6505
R745 source.n202 source.t4 1.6505
R746 source.n204 source.t5 1.6505
R747 source.n204 source.t21 1.6505
R748 source.n519 source.n517 1.16414
R749 source.n527 source.n486 1.16414
R750 source.n449 source.n447 1.16414
R751 source.n457 source.n416 1.16414